version 3
run Gpsr_Moblity_0mps_105Dbm_noise-0-20241016-13:43:56-22764
attr configname Gpsr_Moblity_0mps_105Dbm_noise
attr datetime 20241016-13:43:56
attr datetimef 20241016-134356
attr experiment Gpsr_Moblity_0mps_105Dbm_noise
attr inifile FANETconfig.ini
attr iterationvars ""
attr iterationvarsd ""
attr iterationvarsf ""
attr measurement ""
attr network KhaoSatGPSR.MangMoPhong
attr processid 22764
attr repetition 0
attr replication #0
attr resultdir results
attr runnumber 0
attr seedset 0
config image-path ../../../inet4.4/images
config extends "StationaryMobility, Gpsr, Noise_106"
config *.*.mobility.typename StationaryMobility
config *.*.routing.typename Gpsr
config *.*.routing.beaconInterval 2s
config *.radioMedium.backgroundNoise.power "-106 dBm"
config network KhaoSatGPSR.MangMoPhong
config sim-time-limit 310s
config repeat 5
config *.GCS.wlan[*].radio.packetErrorRate:vector.vector-recording true
config *.GCS.wlan[*].radio.minSnir:vector.vector-recording true
config *.GCS.wlan[*].radio.packetErrorRate.result-recording-modes +vector
config *.GCS.wlan[*].radio.minSnir.result-recording-modes +vector
config **.wlan[*].radio.typename Ieee80211ScalarRadio
config **.wlan[*].radio.bandName "\"2.4 GHz\""
config **.opMode "\"g(mixed)\""
config **.wlan[*].bitrate 36Mbps
config **.wlan[*].radio.transmitter.power 9dBm
config *.GCS.wlan[*].radio.displayCommunicationRange true
config *.U1.wlan[*].radio.displayCommunicationRange true
config *.radioMedium.pathLoss.typename FreeSpacePathLoss
config *.visualizer.osgVisualizer.typename IntegratedOsgVisualizer
config *.visualizer.osgVisualizer.sceneVisualizer.clearColor "\"skyblue\""
config *.visualizer.osgVisualizer.sceneVisualizer.sceneImage "\"showcases/desert\""
config *.visualizer.osgVisualizer.sceneVisualizer.sceneImageSize 6000m
config *.visualizer.osgVisualizer.sceneVisualizer.axisLength 6200m
config *.visualizer.osgVisualizer.sceneVisualizer.sceneMinX -1000m
config *.visualizer.osgVisualizer.sceneVisualizer.sceneMinY -1000m
config *.visualizer.osgVisualizer.sceneVisualizer.sceneMinZ 100m
config *.visualizer.osgVisualizer.sceneVisualizer.sceneMaxX 6100m
config *.visualizer.osgVisualizer.sceneVisualizer.sceneMaxY 6100m
config *.visualizer.osgVisualizer.sceneVisualizer.sceneMaxZ 1000m
config *.visualizer.*.networkRouteVisualizer.displayRoutes true
config *.visualizer.*.networkRouteVisualizer[0].packetFilter "\"UDP*\""
config *.visualizer.*.infoVisualizer.modules "\"*.*.app[0]\""
config *.visualizer.*.infoVisualizer.format "\"%t\""
config *.visualizer.*.infoVisualizer.placementHint "\"topCenter\""
config *.radioMedium.backgroundNoise.typename IsotropicScalarBackgroundNoise
config *.radioMedium.backgroundNoise.power "-106 dBm"
config **.wlan[0].radio.receiver.sensitivity -85dBm
config **.wlan[0].radio.receiver.energyDetection -85dBm
config **.wlan[0].radio.receiver.snirThreshold 4dB
config *.U1.numApps 1
config *.U1.app[0].typename UdpBasicApp
config *.U1.app[0].destAddresses "\"GCS\""
config *.U1.app[0].destPort 1000
config *.U1.app[0].sendInterval normal(250ms,10us)
config *.U1.app[0].startTime 10s
config *.U1.app[0].messageLength 1200Byte
config *.U1.app[0].packetName "\"UDPdata\""
config *.GCS.numApps 1
config *.GCS.app[0].typename UdpSink
config *.GCS.app[0].localPort 1000
config *.U*.mobility.constraintAreaMinX 0m
config *.U*.mobility.constraintAreaMinY 0m
config *.U*.mobility.constraintAreaMinZ 10m
config *.U*.mobility.constraintAreaMaxX 1200m
config *.U*.mobility.constraintAreaMaxY 1000m
config *.U*.mobility.constraintAreaMaxZ 50m

par MangMoPhong.radioMedium.propagation typename "\"inet.physicallayer.wireless.common.propagation.ConstantSpeedPropagation\""
par MangMoPhong.radioMedium.propagation propagationSpeed 2.99792e+08mps
attr unit mps
par MangMoPhong.radioMedium.propagation ignoreMovementDuringTransmission true
par MangMoPhong.radioMedium.propagation ignoreMovementDuringPropagation true
par MangMoPhong.radioMedium.propagation ignoreMovementDuringReception true
scalar MangMoPhong.radioMedium.propagation "Arrival computation count" 39700
par MangMoPhong.radioMedium.analogModel typename "\"inet.physicallayer.wireless.common.analogmodel.packetlevel.ScalarAnalogModel\""
par MangMoPhong.radioMedium.analogModel ignorePartialInterference false
par MangMoPhong.radioMedium.backgroundNoise typename "\"inet.physicallayer.wireless.common.backgroundnoise.IsotropicScalarBackgroundNoise\""
par MangMoPhong.radioMedium.backgroundNoise power -106dBm
attr unit dBm
par MangMoPhong.radioMedium.backgroundNoise bandwidth "nan Hz"
attr unit Hz
par MangMoPhong.radioMedium.pathLoss typename "\"inet.physicallayer.wireless.common.pathloss.FreeSpacePathLoss\""
par MangMoPhong.radioMedium.pathLoss alpha 2
par MangMoPhong.radioMedium.pathLoss systemLoss 0dB
attr unit dB
par MangMoPhong.radioMedium.mediumLimitCache typename "\"inet.physicallayer.wireless.common.medium.MediumLimitCache\""
par MangMoPhong.radioMedium.mediumLimitCache centerFrequency 2.4e+09Hz
attr unit Hz
par MangMoPhong.radioMedium.mediumLimitCache maxSpeed "nan mps"
attr unit mps
par MangMoPhong.radioMedium.mediumLimitCache maxTransmissionPower "nan W"
attr unit W
par MangMoPhong.radioMedium.mediumLimitCache minInterferencePower -110dBm
attr unit dBm
par MangMoPhong.radioMedium.mediumLimitCache minReceptionPower -85dBm
attr unit dBm
par MangMoPhong.radioMedium.mediumLimitCache maxAntennaGain 0dB
attr unit dB
par MangMoPhong.radioMedium.mediumLimitCache minInterferenceTime 1e-12s
attr unit s
par MangMoPhong.radioMedium.mediumLimitCache maxTransmissionDuration 0.01s
attr unit s
par MangMoPhong.radioMedium.mediumLimitCache maxCommunicationRange "nan m"
attr unit m
par MangMoPhong.radioMedium.mediumLimitCache maxInterferenceRange "nan m"
attr unit m
par MangMoPhong.radioMedium.communicationCache typename "\"inet.physicallayer.wireless.common.communicationcache.VectorCommunicationCache\""
par MangMoPhong.radioMedium typename "\"inet.physicallayer.wireless.ieee80211.packetlevel.Ieee80211ScalarRadioMedium\""
par MangMoPhong.radioMedium physicalEnvironmentModule "\"physicalEnvironment\""
par MangMoPhong.radioMedium signalAnalogRepresentation "\"scalar\""
attr enum unitDisk,scalar,dimensional
par MangMoPhong.radioMedium rangeFilter "\"\""
par MangMoPhong.radioMedium radioModeFilter false
par MangMoPhong.radioMedium listeningFilter false
par MangMoPhong.radioMedium macAddressFilter false
par MangMoPhong.radioMedium recordTransmissionLog false
par MangMoPhong.radioMedium recordReceptionLog false
scalar MangMoPhong.radioMedium "transmission count" 1588
scalar MangMoPhong.radioMedium "signal send count" 39700
scalar MangMoPhong.radioMedium "reception computation count" 39700
scalar MangMoPhong.radioMedium "interference computation count" 120658
scalar MangMoPhong.radioMedium "reception decision computation count" 23565
scalar MangMoPhong.radioMedium "listening decision computation count" 57396
scalar MangMoPhong.radioMedium "reception cache hit" 82.711995784688
attr unit %
scalar MangMoPhong.radioMedium "interference cache hit" 66.666666666667
attr unit %
scalar MangMoPhong.radioMedium "noise cache hit" 0
attr unit %
scalar MangMoPhong.radioMedium "snir cache hit" 50
attr unit %
scalar MangMoPhong.radioMedium "reception decision cache hit" 50
attr unit %
scalar MangMoPhong.radioMedium "reception result cache hit" 0
attr unit %
par MangMoPhong.visualizer.canvasVisualizer.sceneVisualizer typename "\"inet.visualizer.canvas.scene.SceneCanvasVisualizer\""
par MangMoPhong.visualizer.canvasVisualizer.sceneVisualizer visualizationTargetModule "\"^.^.^\""
par MangMoPhong.visualizer.canvasVisualizer.sceneVisualizer visualizationSubjectModule "\"^.^.^\""
par MangMoPhong.visualizer.canvasVisualizer.sceneVisualizer tags "\"\""
par MangMoPhong.visualizer.canvasVisualizer.sceneVisualizer physicalEnvironmentModule "\"physicalEnvironment\""
par MangMoPhong.visualizer.canvasVisualizer.sceneVisualizer networkNodeVisualizerModule "\"^.networkNodeVisualizer\""
par MangMoPhong.visualizer.canvasVisualizer.sceneVisualizer axisLength "nan m"
attr mutable ""
attr unit m
par MangMoPhong.visualizer.canvasVisualizer.sceneVisualizer animationSpeed 0
par MangMoPhong.visualizer.canvasVisualizer.sceneVisualizer sceneMinX "nan m"
attr unit m
par MangMoPhong.visualizer.canvasVisualizer.sceneVisualizer sceneMinY "nan m"
attr unit m
par MangMoPhong.visualizer.canvasVisualizer.sceneVisualizer sceneMinZ "nan m"
attr unit m
par MangMoPhong.visualizer.canvasVisualizer.sceneVisualizer sceneMaxX "nan m"
attr unit m
par MangMoPhong.visualizer.canvasVisualizer.sceneVisualizer sceneMaxY "nan m"
attr unit m
par MangMoPhong.visualizer.canvasVisualizer.sceneVisualizer sceneMaxZ "nan m"
attr unit m
par MangMoPhong.visualizer.canvasVisualizer.sceneVisualizer zIndex 0
par MangMoPhong.visualizer.canvasVisualizer.sceneVisualizer viewAngle "\"x right y down z out\""
attr mutable ""
par MangMoPhong.visualizer.canvasVisualizer.sceneVisualizer viewScale "\"1 1\""
attr mutable ""
par MangMoPhong.visualizer.canvasVisualizer.sceneVisualizer viewTranslation "\"0 0\""
attr mutable ""
par MangMoPhong.visualizer.canvasVisualizer.sceneVisualizer descriptionFigure "\"\""
par MangMoPhong.visualizer.canvasVisualizer.physicalEnvironmentVisualizer typename "\"inet.visualizer.canvas.environment.PhysicalEnvironmentCanvasVisualizer\""
par MangMoPhong.visualizer.canvasVisualizer.physicalEnvironmentVisualizer visualizationTargetModule "\"^.^.^\""
par MangMoPhong.visualizer.canvasVisualizer.physicalEnvironmentVisualizer visualizationSubjectModule "\"^.^.^\""
par MangMoPhong.visualizer.canvasVisualizer.physicalEnvironmentVisualizer tags "\"\""
par MangMoPhong.visualizer.canvasVisualizer.physicalEnvironmentVisualizer physicalEnvironmentModule "\"physicalEnvironment\""
par MangMoPhong.visualizer.canvasVisualizer.physicalEnvironmentVisualizer displayObjects true
par MangMoPhong.visualizer.canvasVisualizer.physicalEnvironmentVisualizer zIndex 0
par MangMoPhong.visualizer.canvasVisualizer.networkNodeVisualizer typename "\"inet.visualizer.canvas.scene.NetworkNodeCanvasVisualizer\""
par MangMoPhong.visualizer.canvasVisualizer.networkNodeVisualizer visualizationTargetModule "\"^.^.^\""
par MangMoPhong.visualizer.canvasVisualizer.networkNodeVisualizer visualizationSubjectModule "\"^.^.^\""
par MangMoPhong.visualizer.canvasVisualizer.networkNodeVisualizer tags "\"\""
par MangMoPhong.visualizer.canvasVisualizer.networkNodeVisualizer nodeFilter "\"*\""
attr mutable ""
par MangMoPhong.visualizer.canvasVisualizer.networkNodeVisualizer annotationSpacing 4
par MangMoPhong.visualizer.canvasVisualizer.networkNodeVisualizer placementPenalty 10
par MangMoPhong.visualizer.canvasVisualizer.networkNodeVisualizer zIndex 0
par MangMoPhong.visualizer.canvasVisualizer.networkConnectionVisualizer typename "\"inet.visualizer.canvas.scene.NetworkConnectionCanvasVisualizer\""
par MangMoPhong.visualizer.canvasVisualizer.networkConnectionVisualizer visualizationTargetModule "\"^.^.^\""
par MangMoPhong.visualizer.canvasVisualizer.networkConnectionVisualizer visualizationSubjectModule "\"^.^.^\""
par MangMoPhong.visualizer.canvasVisualizer.networkConnectionVisualizer tags "\"\""
par MangMoPhong.visualizer.canvasVisualizer.networkConnectionVisualizer displayNetworkConnections true
par MangMoPhong.visualizer.canvasVisualizer.networkConnectionVisualizer nodeFilter "\"\""
attr mutable ""
par MangMoPhong.visualizer.canvasVisualizer.networkConnectionVisualizer lineColor "\"black\""
par MangMoPhong.visualizer.canvasVisualizer.networkConnectionVisualizer lineStyle "\"solid\""
par MangMoPhong.visualizer.canvasVisualizer.networkConnectionVisualizer lineWidth 1
par MangMoPhong.visualizer.canvasVisualizer.networkConnectionVisualizer zIndex 0
par MangMoPhong.visualizer.canvasVisualizer.mobilityVisualizer typename "\"inet.visualizer.canvas.mobility.MobilityCanvasVisualizer\""
par MangMoPhong.visualizer.canvasVisualizer.mobilityVisualizer visualizationTargetModule "\"^.^.^\""
par MangMoPhong.visualizer.canvasVisualizer.mobilityVisualizer visualizationSubjectModule "\"^.^.^\""
par MangMoPhong.visualizer.canvasVisualizer.mobilityVisualizer tags "\"\""
par MangMoPhong.visualizer.canvasVisualizer.mobilityVisualizer networkNodeVisualizerModule "\"^.networkNodeVisualizer\""
par MangMoPhong.visualizer.canvasVisualizer.mobilityVisualizer displayMobility true
par MangMoPhong.visualizer.canvasVisualizer.mobilityVisualizer animationSpeed 0
par MangMoPhong.visualizer.canvasVisualizer.mobilityVisualizer moduleFilter "\"**.mobility\""
attr mutable ""
par MangMoPhong.visualizer.canvasVisualizer.mobilityVisualizer displayPositions false
par MangMoPhong.visualizer.canvasVisualizer.mobilityVisualizer positionCircleRadius 4
par MangMoPhong.visualizer.canvasVisualizer.mobilityVisualizer positionCircleLineWidth 1
par MangMoPhong.visualizer.canvasVisualizer.mobilityVisualizer positionCircleLineColor "\"dark\""
attr enum light,dark
par MangMoPhong.visualizer.canvasVisualizer.mobilityVisualizer positionCircleFillColor "\"dark\""
attr enum light,dark
par MangMoPhong.visualizer.canvasVisualizer.mobilityVisualizer displayOrientations false
par MangMoPhong.visualizer.canvasVisualizer.mobilityVisualizer orientationPieRadius 32
par MangMoPhong.visualizer.canvasVisualizer.mobilityVisualizer orientationPieSize 0.2
par MangMoPhong.visualizer.canvasVisualizer.mobilityVisualizer orientationPieOpacity 0.25
par MangMoPhong.visualizer.canvasVisualizer.mobilityVisualizer orientationLineColor "\"black\""
par MangMoPhong.visualizer.canvasVisualizer.mobilityVisualizer orientationLineStyle "\"solid\""
par MangMoPhong.visualizer.canvasVisualizer.mobilityVisualizer orientationLineWidth 1
par MangMoPhong.visualizer.canvasVisualizer.mobilityVisualizer orientationFillColor "\"blue\""
par MangMoPhong.visualizer.canvasVisualizer.mobilityVisualizer displayVelocities false
par MangMoPhong.visualizer.canvasVisualizer.mobilityVisualizer velocityArrowScale 1
par MangMoPhong.visualizer.canvasVisualizer.mobilityVisualizer velocityLineColor "\"black\""
par MangMoPhong.visualizer.canvasVisualizer.mobilityVisualizer velocityLineStyle "\"solid\""
par MangMoPhong.visualizer.canvasVisualizer.mobilityVisualizer velocityLineWidth 1
par MangMoPhong.visualizer.canvasVisualizer.mobilityVisualizer displayMovementTrails false
par MangMoPhong.visualizer.canvasVisualizer.mobilityVisualizer movementTrailLineColor "\"dark\""
attr enum light,dark
par MangMoPhong.visualizer.canvasVisualizer.mobilityVisualizer movementTrailLineStyle "\"solid\""
par MangMoPhong.visualizer.canvasVisualizer.mobilityVisualizer movementTrailLineWidth 1
par MangMoPhong.visualizer.canvasVisualizer.mobilityVisualizer trailLength 100
par MangMoPhong.visualizer.canvasVisualizer.mobilityVisualizer zIndex 0
par MangMoPhong.visualizer.canvasVisualizer.statisticVisualizer typename "\"inet.visualizer.canvas.common.StatisticCanvasVisualizer\""
par MangMoPhong.visualizer.canvasVisualizer.statisticVisualizer visualizationTargetModule "\"^.^.^\""
par MangMoPhong.visualizer.canvasVisualizer.statisticVisualizer visualizationSubjectModule "\"^.^.^\""
par MangMoPhong.visualizer.canvasVisualizer.statisticVisualizer tags "\"\""
par MangMoPhong.visualizer.canvasVisualizer.statisticVisualizer networkNodeVisualizerModule "\"^.networkNodeVisualizer\""
par MangMoPhong.visualizer.canvasVisualizer.statisticVisualizer displayStatistics true
par MangMoPhong.visualizer.canvasVisualizer.statisticVisualizer signalName "\"\""
par MangMoPhong.visualizer.canvasVisualizer.statisticVisualizer statisticName "\"\""
par MangMoPhong.visualizer.canvasVisualizer.statisticVisualizer statisticUnit "\"\""
par MangMoPhong.visualizer.canvasVisualizer.statisticVisualizer statisticExpression "\"\""
par MangMoPhong.visualizer.canvasVisualizer.statisticVisualizer sourceFilter "\"**\""
attr mutable ""
par MangMoPhong.visualizer.canvasVisualizer.statisticVisualizer format "\"%n: %v %u\""
attr mutable ""
par MangMoPhong.visualizer.canvasVisualizer.statisticVisualizer unit "\"\""
par MangMoPhong.visualizer.canvasVisualizer.statisticVisualizer font "\"<default>\""
par MangMoPhong.visualizer.canvasVisualizer.statisticVisualizer textColor "\"black\""
par MangMoPhong.visualizer.canvasVisualizer.statisticVisualizer backgroundColor "\"white\""
par MangMoPhong.visualizer.canvasVisualizer.statisticVisualizer opacity 1
par MangMoPhong.visualizer.canvasVisualizer.statisticVisualizer placementHint "\"top\""
par MangMoPhong.visualizer.canvasVisualizer.statisticVisualizer placementPriority 0
par MangMoPhong.visualizer.canvasVisualizer.statisticVisualizer zIndex 10
par MangMoPhong.visualizer.canvasVisualizer.statisticVisualizer propertyName "\"\""
par MangMoPhong.visualizer.canvasVisualizer.statisticVisualizer propertyIndex "\"\""
par MangMoPhong.visualizer.canvasVisualizer.infoVisualizer typename "\"inet.visualizer.canvas.common.InfoCanvasVisualizer\""
par MangMoPhong.visualizer.canvasVisualizer.infoVisualizer visualizationTargetModule "\"^.^.^\""
par MangMoPhong.visualizer.canvasVisualizer.infoVisualizer visualizationSubjectModule "\"^.^.^\""
par MangMoPhong.visualizer.canvasVisualizer.infoVisualizer tags "\"\""
par MangMoPhong.visualizer.canvasVisualizer.infoVisualizer networkNodeVisualizerModule "\"^.networkNodeVisualizer\""
par MangMoPhong.visualizer.canvasVisualizer.infoVisualizer displayInfos true
par MangMoPhong.visualizer.canvasVisualizer.infoVisualizer modules "\"*.*.app[0]\""
attr mutable ""
par MangMoPhong.visualizer.canvasVisualizer.infoVisualizer format "\"%t\""
attr mutable ""
par MangMoPhong.visualizer.canvasVisualizer.infoVisualizer font "\"<default>\""
par MangMoPhong.visualizer.canvasVisualizer.infoVisualizer textColor "\"black\""
par MangMoPhong.visualizer.canvasVisualizer.infoVisualizer backgroundColor "\"white\""
par MangMoPhong.visualizer.canvasVisualizer.infoVisualizer opacity 1
par MangMoPhong.visualizer.canvasVisualizer.infoVisualizer placementHint "\"topCenter\""
par MangMoPhong.visualizer.canvasVisualizer.infoVisualizer placementPriority 0
par MangMoPhong.visualizer.canvasVisualizer.infoVisualizer zIndex 10
par MangMoPhong.visualizer.canvasVisualizer.energyStorageVisualizer typename "\"inet.visualizer.canvas.power.EnergyStorageCanvasVisualizer\""
par MangMoPhong.visualizer.canvasVisualizer.energyStorageVisualizer visualizationTargetModule "\"^.^.^\""
par MangMoPhong.visualizer.canvasVisualizer.energyStorageVisualizer visualizationSubjectModule "\"^.^.^\""
par MangMoPhong.visualizer.canvasVisualizer.energyStorageVisualizer tags "\"\""
par MangMoPhong.visualizer.canvasVisualizer.energyStorageVisualizer networkNodeVisualizerModule "\"^.networkNodeVisualizer\""
par MangMoPhong.visualizer.canvasVisualizer.energyStorageVisualizer displayEnergyStorages false
par MangMoPhong.visualizer.canvasVisualizer.energyStorageVisualizer energyStorageFilter "\"**\""
par MangMoPhong.visualizer.canvasVisualizer.energyStorageVisualizer color "\"green\""
par MangMoPhong.visualizer.canvasVisualizer.energyStorageVisualizer width 8
par MangMoPhong.visualizer.canvasVisualizer.energyStorageVisualizer height 24
par MangMoPhong.visualizer.canvasVisualizer.energyStorageVisualizer spacing 2
par MangMoPhong.visualizer.canvasVisualizer.energyStorageVisualizer placementHint "\"right\""
par MangMoPhong.visualizer.canvasVisualizer.energyStorageVisualizer placementPriority 0
par MangMoPhong.visualizer.canvasVisualizer.energyStorageVisualizer zIndex 10
par MangMoPhong.visualizer.canvasVisualizer.mediumVisualizer typename "\"inet.visualizer.canvas.physicallayer.MediumCanvasVisualizer\""
par MangMoPhong.visualizer.canvasVisualizer.mediumVisualizer visualizationTargetModule "\"^.^.^\""
par MangMoPhong.visualizer.canvasVisualizer.mediumVisualizer visualizationSubjectModule "\"^.^.^\""
par MangMoPhong.visualizer.canvasVisualizer.mediumVisualizer tags "\"\""
par MangMoPhong.visualizer.canvasVisualizer.mediumVisualizer mediumModule "\"radioMedium\""
par MangMoPhong.visualizer.canvasVisualizer.mediumVisualizer networkNodeVisualizerModule "\"^.networkNodeVisualizer\""
par MangMoPhong.visualizer.canvasVisualizer.mediumVisualizer nodeFilter "\"*\""
attr mutable ""
par MangMoPhong.visualizer.canvasVisualizer.mediumVisualizer interfaceFilter "\"*\""
attr mutable ""
par MangMoPhong.visualizer.canvasVisualizer.mediumVisualizer packetFilter "(omnetpp::cValueHolder)holder: \"*\""
attr mutable ""
par MangMoPhong.visualizer.canvasVisualizer.mediumVisualizer displaySignals false
par MangMoPhong.visualizer.canvasVisualizer.mediumVisualizer signalColor "\"dark\""
attr enum light,dark
par MangMoPhong.visualizer.canvasVisualizer.mediumVisualizer signalPropagationAnimationSpeed "nan "
attr mutable ""
par MangMoPhong.visualizer.canvasVisualizer.mediumVisualizer signalPropagationAnimationTime 1s
attr unit s
par MangMoPhong.visualizer.canvasVisualizer.mediumVisualizer signalPropagationAdditionalTime 0s
attr unit s
par MangMoPhong.visualizer.canvasVisualizer.mediumVisualizer signalTransmissionAnimationSpeed "nan "
attr mutable ""
par MangMoPhong.visualizer.canvasVisualizer.mediumVisualizer signalTransmissionAnimationTime 1s
attr unit s
par MangMoPhong.visualizer.canvasVisualizer.mediumVisualizer signalAnimationSpeedChangeTimeMode "\"realTime\""
attr enum realTime,animationTime,simulationTime
par MangMoPhong.visualizer.canvasVisualizer.mediumVisualizer signalAnimationSpeedChangeTime 1s
attr unit s
par MangMoPhong.visualizer.canvasVisualizer.mediumVisualizer displaySignalDepartures false
par MangMoPhong.visualizer.canvasVisualizer.mediumVisualizer signalDepartureImage "\"misc/signal_departure.png\""
par MangMoPhong.visualizer.canvasVisualizer.mediumVisualizer signalDeparturePlacementHint "\"topCenter\""
par MangMoPhong.visualizer.canvasVisualizer.mediumVisualizer signalDeparturePlacementPriority 1
par MangMoPhong.visualizer.canvasVisualizer.mediumVisualizer displaySignalArrivals false
par MangMoPhong.visualizer.canvasVisualizer.mediumVisualizer signalArrivalImage "\"misc/signal_arrival.png\""
par MangMoPhong.visualizer.canvasVisualizer.mediumVisualizer signalArrivalPlacementHint "\"topCenter\""
par MangMoPhong.visualizer.canvasVisualizer.mediumVisualizer signalArrivalPlacementPriority -1
par MangMoPhong.visualizer.canvasVisualizer.mediumVisualizer displayCommunicationRanges false
par MangMoPhong.visualizer.canvasVisualizer.mediumVisualizer communicationRangeLineColor "\"blue\""
par MangMoPhong.visualizer.canvasVisualizer.mediumVisualizer communicationRangeLineStyle "\"solid\""
par MangMoPhong.visualizer.canvasVisualizer.mediumVisualizer communicationRangeLineWidth 1
par MangMoPhong.visualizer.canvasVisualizer.mediumVisualizer displayInterferenceRanges false
par MangMoPhong.visualizer.canvasVisualizer.mediumVisualizer interferenceRangeLineColor "\"gray\""
par MangMoPhong.visualizer.canvasVisualizer.mediumVisualizer interferenceRangeLineStyle "\"solid\""
par MangMoPhong.visualizer.canvasVisualizer.mediumVisualizer interferenceRangeLineWidth 1
par MangMoPhong.visualizer.canvasVisualizer.mediumVisualizer autoPowerAxis true
par MangMoPhong.visualizer.canvasVisualizer.mediumVisualizer signalMinPower "inf dBmW"
attr unit dBmW
par MangMoPhong.visualizer.canvasVisualizer.mediumVisualizer signalMaxPower 0dBmW
attr unit dBmW
par MangMoPhong.visualizer.canvasVisualizer.mediumVisualizer signalMinPowerDensity "inf dBmWpMHz"
attr unit dBmWpMHz
par MangMoPhong.visualizer.canvasVisualizer.mediumVisualizer signalMaxPowerDensity "-inf dBmWpMHz"
attr unit dBmWpMHz
par MangMoPhong.visualizer.canvasVisualizer.mediumVisualizer autoTimeAxis true
par MangMoPhong.visualizer.canvasVisualizer.mediumVisualizer signalMinTime 0s
attr unit s
par MangMoPhong.visualizer.canvasVisualizer.mediumVisualizer signalMaxTime 0s
attr unit s
par MangMoPhong.visualizer.canvasVisualizer.mediumVisualizer autoFrequencyAxis true
par MangMoPhong.visualizer.canvasVisualizer.mediumVisualizer signalMinFrequency "inf Hz"
attr unit Hz
par MangMoPhong.visualizer.canvasVisualizer.mediumVisualizer signalMaxFrequency "-inf Hz"
attr unit Hz
par MangMoPhong.visualizer.canvasVisualizer.mediumVisualizer displayMainPowerDensityMap false
par MangMoPhong.visualizer.canvasVisualizer.mediumVisualizer mainPowerDensityMapPixmapDensity 1
par MangMoPhong.visualizer.canvasVisualizer.mediumVisualizer mainPowerDensityMapMinX 0
par MangMoPhong.visualizer.canvasVisualizer.mediumVisualizer mainPowerDensityMapMaxX "nan "
par MangMoPhong.visualizer.canvasVisualizer.mediumVisualizer mainPowerDensityMapMinY 0
par MangMoPhong.visualizer.canvasVisualizer.mediumVisualizer mainPowerDensityMapMaxY "nan "
par MangMoPhong.visualizer.canvasVisualizer.mediumVisualizer mainPowerDensityMapZ 0
par MangMoPhong.visualizer.canvasVisualizer.mediumVisualizer mainPowerDensityMapFigureXTickCount 3
par MangMoPhong.visualizer.canvasVisualizer.mediumVisualizer mainPowerDensityMapFigureYTickCount 3
par MangMoPhong.visualizer.canvasVisualizer.mediumVisualizer displayPowerDensityMaps false
par MangMoPhong.visualizer.canvasVisualizer.mediumVisualizer powerDensityMapMode "\"auto\""
attr enum total,signal,auto
par MangMoPhong.visualizer.canvasVisualizer.mediumVisualizer powerDensityMapPixelMode "\"mean\""
attr enum sample,partition,mean
par MangMoPhong.visualizer.canvasVisualizer.mediumVisualizer powerDensityMapApproximationSize 10
par MangMoPhong.visualizer.canvasVisualizer.mediumVisualizer powerDensityMapCenterFrequency "nan Hz"
attr mutable ""
attr unit Hz
par MangMoPhong.visualizer.canvasVisualizer.mediumVisualizer powerDensityMapBandwidth 0Hz
attr mutable ""
attr unit Hz
par MangMoPhong.visualizer.canvasVisualizer.mediumVisualizer powerDensityMapFigureWidth 200
par MangMoPhong.visualizer.canvasVisualizer.mediumVisualizer powerDensityMapFigureHeight 120
par MangMoPhong.visualizer.canvasVisualizer.mediumVisualizer powerDensityMapPixmapWidth 200
par MangMoPhong.visualizer.canvasVisualizer.mediumVisualizer powerDensityMapPixmapHeight 120
par MangMoPhong.visualizer.canvasVisualizer.mediumVisualizer powerDensityMapZ 0
par MangMoPhong.visualizer.canvasVisualizer.mediumVisualizer powerDensityMapFigureXTickCount 3
par MangMoPhong.visualizer.canvasVisualizer.mediumVisualizer powerDensityMapFigureYTickCount 3
par MangMoPhong.visualizer.canvasVisualizer.mediumVisualizer displaySpectrums false
par MangMoPhong.visualizer.canvasVisualizer.mediumVisualizer spectrumMode "\"auto\""
attr enum total,signal,auto
par MangMoPhong.visualizer.canvasVisualizer.mediumVisualizer spectrumFigureWidth 200
par MangMoPhong.visualizer.canvasVisualizer.mediumVisualizer spectrumFigureHeight 120
par MangMoPhong.visualizer.canvasVisualizer.mediumVisualizer spectrumFigureXTickCount 3
par MangMoPhong.visualizer.canvasVisualizer.mediumVisualizer spectrumFigureYTickCount 5
par MangMoPhong.visualizer.canvasVisualizer.mediumVisualizer spectrumFigureInterpolationSize 5
par MangMoPhong.visualizer.canvasVisualizer.mediumVisualizer spectrumPlacementHint "\"bottomCenter\""
par MangMoPhong.visualizer.canvasVisualizer.mediumVisualizer spectrumPlacementPriority -1
par MangMoPhong.visualizer.canvasVisualizer.mediumVisualizer displaySpectrograms false
par MangMoPhong.visualizer.canvasVisualizer.mediumVisualizer spectrogramMode "\"auto\""
attr enum total,signal,auto
par MangMoPhong.visualizer.canvasVisualizer.mediumVisualizer spectrogramPixelMode "\"mean\""
attr enum sample,partition,mean
par MangMoPhong.visualizer.canvasVisualizer.mediumVisualizer spectrogramFigureWidth 200
par MangMoPhong.visualizer.canvasVisualizer.mediumVisualizer spectrogramFigureHeight 120
par MangMoPhong.visualizer.canvasVisualizer.mediumVisualizer spectrogramPixmapWidth 200
par MangMoPhong.visualizer.canvasVisualizer.mediumVisualizer spectrogramPixmapHeight 120
par MangMoPhong.visualizer.canvasVisualizer.mediumVisualizer spectrogramFigureXTickCount 3
par MangMoPhong.visualizer.canvasVisualizer.mediumVisualizer spectrogramFigureYTickCount 5
par MangMoPhong.visualizer.canvasVisualizer.mediumVisualizer spectrogramPlacementHint "\"bottomCenter\""
par MangMoPhong.visualizer.canvasVisualizer.mediumVisualizer spectrogramPlacementPriority -1
par MangMoPhong.visualizer.canvasVisualizer.mediumVisualizer zIndex 0
par MangMoPhong.visualizer.canvasVisualizer.mediumVisualizer signalShape "\"ring\""
attr enum ring,sphere
par MangMoPhong.visualizer.canvasVisualizer.mediumVisualizer signalOpacity 0.5
par MangMoPhong.visualizer.canvasVisualizer.mediumVisualizer signalRingCount 20
par MangMoPhong.visualizer.canvasVisualizer.mediumVisualizer signalRingSize 50m
attr unit m
par MangMoPhong.visualizer.canvasVisualizer.mediumVisualizer signalFadingDistance 50m
attr unit m
par MangMoPhong.visualizer.canvasVisualizer.mediumVisualizer signalFadingFactor 1.2
par MangMoPhong.visualizer.canvasVisualizer.mediumVisualizer signalWaveCount 20
par MangMoPhong.visualizer.canvasVisualizer.mediumVisualizer signalWaveLength 50m
attr unit m
par MangMoPhong.visualizer.canvasVisualizer.mediumVisualizer signalWaveWidth 10m
attr unit m
par MangMoPhong.visualizer.canvasVisualizer.mediumVisualizer signalWaveFadingAnimationSpeedFactor 1
par MangMoPhong.visualizer.canvasVisualizer.mediumVisualizer displayCommunicationHeat false
par MangMoPhong.visualizer.canvasVisualizer.obstacleLossVisualizer typename "\"inet.visualizer.canvas.physicallayer.TracingObstacleLossCanvasVisualizer\""
par MangMoPhong.visualizer.canvasVisualizer.obstacleLossVisualizer visualizationTargetModule "\"^.^.^\""
par MangMoPhong.visualizer.canvasVisualizer.obstacleLossVisualizer visualizationSubjectModule "\"^.^.^\""
par MangMoPhong.visualizer.canvasVisualizer.obstacleLossVisualizer tags "\"\""
par MangMoPhong.visualizer.canvasVisualizer.obstacleLossVisualizer displayIntersections false
par MangMoPhong.visualizer.canvasVisualizer.obstacleLossVisualizer intersectionLineColor "\"red\""
par MangMoPhong.visualizer.canvasVisualizer.obstacleLossVisualizer intersectionLineStyle "\"solid\""
par MangMoPhong.visualizer.canvasVisualizer.obstacleLossVisualizer intersectionLineWidth 1
par MangMoPhong.visualizer.canvasVisualizer.obstacleLossVisualizer displayFaceNormalVectors false
par MangMoPhong.visualizer.canvasVisualizer.obstacleLossVisualizer faceNormalLineColor "\"grey\""
par MangMoPhong.visualizer.canvasVisualizer.obstacleLossVisualizer faceNormalLineStyle "\"solid\""
par MangMoPhong.visualizer.canvasVisualizer.obstacleLossVisualizer faceNormalLineWidth 1
par MangMoPhong.visualizer.canvasVisualizer.obstacleLossVisualizer fadeOutMode "\"realTime\""
attr enum realTime,animationTime,simulationTime
par MangMoPhong.visualizer.canvasVisualizer.obstacleLossVisualizer fadeOutTime 1s
attr unit s
par MangMoPhong.visualizer.canvasVisualizer.obstacleLossVisualizer fadeOutAnimationSpeed 0
par MangMoPhong.visualizer.canvasVisualizer.obstacleLossVisualizer zIndex 0
par MangMoPhong.visualizer.canvasVisualizer.packetDropVisualizer typename "\"inet.visualizer.canvas.common.PacketDropCanvasVisualizer\""
par MangMoPhong.visualizer.canvasVisualizer.packetDropVisualizer visualizationTargetModule "\"^.^.^\""
par MangMoPhong.visualizer.canvasVisualizer.packetDropVisualizer visualizationSubjectModule "\"^.^.^\""
par MangMoPhong.visualizer.canvasVisualizer.packetDropVisualizer tags "\"\""
par MangMoPhong.visualizer.canvasVisualizer.packetDropVisualizer displayPacketDrops false
par MangMoPhong.visualizer.canvasVisualizer.packetDropVisualizer nodeFilter "\"*\""
attr mutable ""
par MangMoPhong.visualizer.canvasVisualizer.packetDropVisualizer interfaceFilter "\"*\""
attr mutable ""
par MangMoPhong.visualizer.canvasVisualizer.packetDropVisualizer packetFilter "(omnetpp::cValueHolder)holder: \"*\""
attr mutable ""
par MangMoPhong.visualizer.canvasVisualizer.packetDropVisualizer detailsFilter "\"*\""
attr mutable ""
par MangMoPhong.visualizer.canvasVisualizer.packetDropVisualizer icon "\"msg/packet_s\""
par MangMoPhong.visualizer.canvasVisualizer.packetDropVisualizer iconTintAmount 1
par MangMoPhong.visualizer.canvasVisualizer.packetDropVisualizer iconTintColor "\"dark\""
par MangMoPhong.visualizer.canvasVisualizer.packetDropVisualizer labelFormat "\"%n\""
attr mutable ""
par MangMoPhong.visualizer.canvasVisualizer.packetDropVisualizer labelFont "\"<default>\""
par MangMoPhong.visualizer.canvasVisualizer.packetDropVisualizer labelColor "\"black\""
par MangMoPhong.visualizer.canvasVisualizer.packetDropVisualizer fadeOutMode "\"realTime\""
attr enum realTime,animationTime,simulationTime
par MangMoPhong.visualizer.canvasVisualizer.packetDropVisualizer fadeOutTime 1s
attr unit s
par MangMoPhong.visualizer.canvasVisualizer.packetDropVisualizer fadeOutAnimationSpeed 0
par MangMoPhong.visualizer.canvasVisualizer.packetDropVisualizer zIndex 10
par MangMoPhong.visualizer.canvasVisualizer.packetDropVisualizer dx 32
par MangMoPhong.visualizer.canvasVisualizer.packetDropVisualizer dy 64
par MangMoPhong.visualizer.canvasVisualizer.packetFlowVisualizer typename "\"inet.visualizer.canvas.flow.PacketFlowCanvasVisualizer\""
par MangMoPhong.visualizer.canvasVisualizer.packetFlowVisualizer visualizationTargetModule "\"^.^.^\""
par MangMoPhong.visualizer.canvasVisualizer.packetFlowVisualizer visualizationSubjectModule "\"^.^.^\""
par MangMoPhong.visualizer.canvasVisualizer.packetFlowVisualizer tags "\"\""
par MangMoPhong.visualizer.canvasVisualizer.packetFlowVisualizer displayRoutes false
par MangMoPhong.visualizer.canvasVisualizer.packetFlowVisualizer startPathSignal "\"packetFlowStarted\""
par MangMoPhong.visualizer.canvasVisualizer.packetFlowVisualizer extendPathSignal "\"packetReceivedFromLower\""
par MangMoPhong.visualizer.canvasVisualizer.packetFlowVisualizer endPathSignal "\"packetFlowEnded\""
par MangMoPhong.visualizer.canvasVisualizer.packetFlowVisualizer nodeFilter "\"*\""
attr mutable ""
par MangMoPhong.visualizer.canvasVisualizer.packetFlowVisualizer packetFilter "(omnetpp::cValueHolder)holder: \"*\""
attr mutable ""
par MangMoPhong.visualizer.canvasVisualizer.packetFlowVisualizer lineColor "\"dark\""
attr enum light,dark
par MangMoPhong.visualizer.canvasVisualizer.packetFlowVisualizer lineStyle "\"dashed\""
par MangMoPhong.visualizer.canvasVisualizer.packetFlowVisualizer lineWidth 3
par MangMoPhong.visualizer.canvasVisualizer.packetFlowVisualizer lineSmooth false
par MangMoPhong.visualizer.canvasVisualizer.packetFlowVisualizer lineShift 16
par MangMoPhong.visualizer.canvasVisualizer.packetFlowVisualizer lineShiftMode "\"normal\""
par MangMoPhong.visualizer.canvasVisualizer.packetFlowVisualizer lineContactSpacing 3
par MangMoPhong.visualizer.canvasVisualizer.packetFlowVisualizer lineContactMode "\"rectangular\""
attr enum circular,rectangular
par MangMoPhong.visualizer.canvasVisualizer.packetFlowVisualizer labelFormat "\"%L %p pk (%l)\""
par MangMoPhong.visualizer.canvasVisualizer.packetFlowVisualizer labelFont "\"<default>, 8px\""
par MangMoPhong.visualizer.canvasVisualizer.packetFlowVisualizer labelColor "\"\""
par MangMoPhong.visualizer.canvasVisualizer.packetFlowVisualizer fadeOutMode "\"realTime\""
attr enum realTime,animationTime,simulationTime
par MangMoPhong.visualizer.canvasVisualizer.packetFlowVisualizer fadeOutTime 0s
attr unit s
par MangMoPhong.visualizer.canvasVisualizer.packetFlowVisualizer fadeOutAnimationSpeed 0
par MangMoPhong.visualizer.canvasVisualizer.packetFlowVisualizer zIndex 4
par MangMoPhong.visualizer.canvasVisualizer.queueVisualizer typename "\"inet.visualizer.canvas.common.QueueCanvasVisualizer\""
par MangMoPhong.visualizer.canvasVisualizer.queueVisualizer visualizationTargetModule "\"^.^.^\""
par MangMoPhong.visualizer.canvasVisualizer.queueVisualizer visualizationSubjectModule "\"^.^.^\""
par MangMoPhong.visualizer.canvasVisualizer.queueVisualizer tags "\"\""
par MangMoPhong.visualizer.canvasVisualizer.queueVisualizer networkNodeVisualizerModule "\"^.networkNodeVisualizer\""
par MangMoPhong.visualizer.canvasVisualizer.queueVisualizer displayQueues false
par MangMoPhong.visualizer.canvasVisualizer.queueVisualizer queueFilter "\"**\""
par MangMoPhong.visualizer.canvasVisualizer.queueVisualizer color "\"blue\""
par MangMoPhong.visualizer.canvasVisualizer.queueVisualizer width 8
par MangMoPhong.visualizer.canvasVisualizer.queueVisualizer height 24
par MangMoPhong.visualizer.canvasVisualizer.queueVisualizer spacing 2
par MangMoPhong.visualizer.canvasVisualizer.queueVisualizer placementHint "\"right\""
par MangMoPhong.visualizer.canvasVisualizer.queueVisualizer placementPriority 0
par MangMoPhong.visualizer.canvasVisualizer.queueVisualizer zIndex 10
par MangMoPhong.visualizer.canvasVisualizer.gateScheduleVisualizer typename "\"inet.visualizer.canvas.common.GateScheduleCanvasVisualizer\""
par MangMoPhong.visualizer.canvasVisualizer.gateScheduleVisualizer visualizationTargetModule "\"^.^.^\""
par MangMoPhong.visualizer.canvasVisualizer.gateScheduleVisualizer visualizationSubjectModule "\"^.^.^\""
par MangMoPhong.visualizer.canvasVisualizer.gateScheduleVisualizer tags "\"\""
par MangMoPhong.visualizer.canvasVisualizer.gateScheduleVisualizer networkNodeVisualizerModule "\"^.networkNodeVisualizer\""
par MangMoPhong.visualizer.canvasVisualizer.gateScheduleVisualizer displayGateSchedules false
par MangMoPhong.visualizer.canvasVisualizer.gateScheduleVisualizer labelFormat "\"%i %D\""
par MangMoPhong.visualizer.canvasVisualizer.gateScheduleVisualizer gateFilter "\"**\""
par MangMoPhong.visualizer.canvasVisualizer.gateScheduleVisualizer width 100
par MangMoPhong.visualizer.canvasVisualizer.gateScheduleVisualizer height 8
par MangMoPhong.visualizer.canvasVisualizer.gateScheduleVisualizer spacing 2
par MangMoPhong.visualizer.canvasVisualizer.gateScheduleVisualizer placementHint "\"right\""
par MangMoPhong.visualizer.canvasVisualizer.gateScheduleVisualizer placementPriority 0
par MangMoPhong.visualizer.canvasVisualizer.gateScheduleVisualizer displayDuration 0s
attr mutable ""
attr unit s
par MangMoPhong.visualizer.canvasVisualizer.gateScheduleVisualizer currentTimePosition 50
par MangMoPhong.visualizer.canvasVisualizer.gateScheduleVisualizer zIndex 10
par MangMoPhong.visualizer.canvasVisualizer.radioVisualizer typename "\"inet.visualizer.canvas.physicallayer.RadioCanvasVisualizer\""
par MangMoPhong.visualizer.canvasVisualizer.radioVisualizer visualizationTargetModule "\"^.^.^\""
par MangMoPhong.visualizer.canvasVisualizer.radioVisualizer visualizationSubjectModule "\"^.^.^\""
par MangMoPhong.visualizer.canvasVisualizer.radioVisualizer tags "\"\""
par MangMoPhong.visualizer.canvasVisualizer.radioVisualizer networkNodeVisualizerModule "\"^.networkNodeVisualizer\""
par MangMoPhong.visualizer.canvasVisualizer.radioVisualizer displayRadios false
par MangMoPhong.visualizer.canvasVisualizer.radioVisualizer displayRadioMode true
par MangMoPhong.visualizer.canvasVisualizer.radioVisualizer displayReceptionState true
par MangMoPhong.visualizer.canvasVisualizer.radioVisualizer displayTransmissionState true
par MangMoPhong.visualizer.canvasVisualizer.radioVisualizer displayAntennaLobes false
par MangMoPhong.visualizer.canvasVisualizer.radioVisualizer radioFilter "\"**\""
attr mutable ""
par MangMoPhong.visualizer.canvasVisualizer.radioVisualizer radioModeImages "\"block/process_vs block/timer_vs block/wrx_vs block/wtx_vs block/wrxtx_vs block/cogwheel_vs\""
par MangMoPhong.visualizer.canvasVisualizer.radioVisualizer receptionStateImages "\"- - misc/receiving misc/receiving\""
par MangMoPhong.visualizer.canvasVisualizer.radioVisualizer transmissionStateImages "\"- - misc/transmitting\""
par MangMoPhong.visualizer.canvasVisualizer.radioVisualizer width 16
par MangMoPhong.visualizer.canvasVisualizer.radioVisualizer height 16
par MangMoPhong.visualizer.canvasVisualizer.radioVisualizer placementHint "\"bottomRight\""
par MangMoPhong.visualizer.canvasVisualizer.radioVisualizer placementPriority 0
par MangMoPhong.visualizer.canvasVisualizer.radioVisualizer antennaLobeNormalize false
par MangMoPhong.visualizer.canvasVisualizer.radioVisualizer antennaLobeRelativeLabels false
par MangMoPhong.visualizer.canvasVisualizer.radioVisualizer antennaLobePlaneGlobal true
par MangMoPhong.visualizer.canvasVisualizer.radioVisualizer antennaLobePlane "\"view\""
attr enum view,xy,xz,yz
par MangMoPhong.visualizer.canvasVisualizer.radioVisualizer antennaLobeMode "\"logarithmic\""
attr enum logarithmic,linear
par MangMoPhong.visualizer.canvasVisualizer.radioVisualizer antennaLobeLogarithmicBase 10
par MangMoPhong.visualizer.canvasVisualizer.radioVisualizer antennaLobeLogarithmicScale 100
par MangMoPhong.visualizer.canvasVisualizer.radioVisualizer antennaLobeRadius 100
par MangMoPhong.visualizer.canvasVisualizer.radioVisualizer antennaLobeStep 10deg
attr unit deg
par MangMoPhong.visualizer.canvasVisualizer.radioVisualizer antennaLobeOpacity 0.25
par MangMoPhong.visualizer.canvasVisualizer.radioVisualizer antennaLobeLineSmooth true
par MangMoPhong.visualizer.canvasVisualizer.radioVisualizer antennaLobeLineColor "\"black\""
par MangMoPhong.visualizer.canvasVisualizer.radioVisualizer antennaLobeLineStyle "\"solid\""
par MangMoPhong.visualizer.canvasVisualizer.radioVisualizer antennaLobeLineWidth 1
par MangMoPhong.visualizer.canvasVisualizer.radioVisualizer antennaLobeFillColor "\"white\""
par MangMoPhong.visualizer.canvasVisualizer.radioVisualizer zIndex 10
par MangMoPhong.visualizer.canvasVisualizer.physicalLinkVisualizer typename "\"inet.visualizer.canvas.physicallayer.PhysicalLinkCanvasVisualizer\""
par MangMoPhong.visualizer.canvasVisualizer.physicalLinkVisualizer visualizationTargetModule "\"^.^.^\""
par MangMoPhong.visualizer.canvasVisualizer.physicalLinkVisualizer visualizationSubjectModule "\"^.^.^\""
par MangMoPhong.visualizer.canvasVisualizer.physicalLinkVisualizer tags "\"\""
par MangMoPhong.visualizer.canvasVisualizer.physicalLinkVisualizer displayLinks false
par MangMoPhong.visualizer.canvasVisualizer.physicalLinkVisualizer activityLevel "\"service\""
attr enum service,peer,protocol
par MangMoPhong.visualizer.canvasVisualizer.physicalLinkVisualizer nodeFilter "\"*\""
attr mutable ""
par MangMoPhong.visualizer.canvasVisualizer.physicalLinkVisualizer interfaceFilter "\"*\""
attr mutable ""
par MangMoPhong.visualizer.canvasVisualizer.physicalLinkVisualizer packetFilter "(omnetpp::cValueHolder)holder: \"*\""
attr mutable ""
par MangMoPhong.visualizer.canvasVisualizer.physicalLinkVisualizer lineColor "\"olive\""
par MangMoPhong.visualizer.canvasVisualizer.physicalLinkVisualizer lineStyle "\"dotted\""
par MangMoPhong.visualizer.canvasVisualizer.physicalLinkVisualizer lineWidth 3
par MangMoPhong.visualizer.canvasVisualizer.physicalLinkVisualizer lineShift 16
par MangMoPhong.visualizer.canvasVisualizer.physicalLinkVisualizer lineShiftMode "\"normal\""
par MangMoPhong.visualizer.canvasVisualizer.physicalLinkVisualizer lineContactSpacing 3
par MangMoPhong.visualizer.canvasVisualizer.physicalLinkVisualizer lineContactMode "\"rectangular\""
attr enum circular,rectangular
par MangMoPhong.visualizer.canvasVisualizer.physicalLinkVisualizer labelFormat "\"%n\""
par MangMoPhong.visualizer.canvasVisualizer.physicalLinkVisualizer labelFont "\"<default>, 8px\""
par MangMoPhong.visualizer.canvasVisualizer.physicalLinkVisualizer labelColor "\"olive\""
par MangMoPhong.visualizer.canvasVisualizer.physicalLinkVisualizer fadeOutMode "\"realTime\""
attr enum realTime,animationTime,simulationTime
par MangMoPhong.visualizer.canvasVisualizer.physicalLinkVisualizer fadeOutTime 1s
attr unit s
par MangMoPhong.visualizer.canvasVisualizer.physicalLinkVisualizer fadeOutAnimationSpeed 0
par MangMoPhong.visualizer.canvasVisualizer.physicalLinkVisualizer holdAnimationTime 0s
attr unit s
par MangMoPhong.visualizer.canvasVisualizer.physicalLinkVisualizer zIndex 1
par MangMoPhong.visualizer.canvasVisualizer.interfaceTableVisualizer typename "\"inet.visualizer.canvas.linklayer.InterfaceTableCanvasVisualizer\""
par MangMoPhong.visualizer.canvasVisualizer.interfaceTableVisualizer visualizationTargetModule "\"^.^.^\""
par MangMoPhong.visualizer.canvasVisualizer.interfaceTableVisualizer visualizationSubjectModule "\"^.^.^\""
par MangMoPhong.visualizer.canvasVisualizer.interfaceTableVisualizer tags "\"\""
par MangMoPhong.visualizer.canvasVisualizer.interfaceTableVisualizer networkNodeVisualizerModule "\"^.networkNodeVisualizer\""
par MangMoPhong.visualizer.canvasVisualizer.interfaceTableVisualizer displayInterfaceTables false
par MangMoPhong.visualizer.canvasVisualizer.interfaceTableVisualizer displayWiredInterfacesAtConnections true
par MangMoPhong.visualizer.canvasVisualizer.interfaceTableVisualizer displayBackground false
par MangMoPhong.visualizer.canvasVisualizer.interfaceTableVisualizer nodeFilter "\"*\""
attr mutable ""
par MangMoPhong.visualizer.canvasVisualizer.interfaceTableVisualizer interfaceFilter "\"not(lo*)\""
attr mutable ""
par MangMoPhong.visualizer.canvasVisualizer.interfaceTableVisualizer format "\"%N %\\\\%a%/%l\""
attr mutable ""
par MangMoPhong.visualizer.canvasVisualizer.interfaceTableVisualizer placementHint "\"top\""
par MangMoPhong.visualizer.canvasVisualizer.interfaceTableVisualizer placementPriority 0
par MangMoPhong.visualizer.canvasVisualizer.interfaceTableVisualizer font "\"<default>\""
par MangMoPhong.visualizer.canvasVisualizer.interfaceTableVisualizer textColor "\"#005030\""
par MangMoPhong.visualizer.canvasVisualizer.interfaceTableVisualizer backgroundColor "\"white\""
par MangMoPhong.visualizer.canvasVisualizer.interfaceTableVisualizer opacity 1
par MangMoPhong.visualizer.canvasVisualizer.interfaceTableVisualizer zIndex 10
par MangMoPhong.visualizer.canvasVisualizer.dataLinkVisualizer typename "\"inet.visualizer.canvas.linklayer.DataLinkCanvasVisualizer\""
par MangMoPhong.visualizer.canvasVisualizer.dataLinkVisualizer visualizationTargetModule "\"^.^.^\""
par MangMoPhong.visualizer.canvasVisualizer.dataLinkVisualizer visualizationSubjectModule "\"^.^.^\""
par MangMoPhong.visualizer.canvasVisualizer.dataLinkVisualizer tags "\"\""
par MangMoPhong.visualizer.canvasVisualizer.dataLinkVisualizer displayLinks false
par MangMoPhong.visualizer.canvasVisualizer.dataLinkVisualizer activityLevel "\"service\""
attr enum service,peer,protocol
par MangMoPhong.visualizer.canvasVisualizer.dataLinkVisualizer nodeFilter "\"*\""
attr mutable ""
par MangMoPhong.visualizer.canvasVisualizer.dataLinkVisualizer interfaceFilter "\"*\""
attr mutable ""
par MangMoPhong.visualizer.canvasVisualizer.dataLinkVisualizer packetFilter "(omnetpp::cValueHolder)holder: \"*\""
attr mutable ""
par MangMoPhong.visualizer.canvasVisualizer.dataLinkVisualizer lineColor "\"darkcyan\""
par MangMoPhong.visualizer.canvasVisualizer.dataLinkVisualizer lineStyle "\"solid\""
par MangMoPhong.visualizer.canvasVisualizer.dataLinkVisualizer lineWidth 3
par MangMoPhong.visualizer.canvasVisualizer.dataLinkVisualizer lineShift 16
par MangMoPhong.visualizer.canvasVisualizer.dataLinkVisualizer lineShiftMode "\"normal\""
par MangMoPhong.visualizer.canvasVisualizer.dataLinkVisualizer lineContactSpacing 3
par MangMoPhong.visualizer.canvasVisualizer.dataLinkVisualizer lineContactMode "\"rectangular\""
attr enum circular,rectangular
par MangMoPhong.visualizer.canvasVisualizer.dataLinkVisualizer labelFormat "\"%n\""
par MangMoPhong.visualizer.canvasVisualizer.dataLinkVisualizer labelFont "\"<default>, 8px\""
par MangMoPhong.visualizer.canvasVisualizer.dataLinkVisualizer labelColor "\"darkcyan\""
par MangMoPhong.visualizer.canvasVisualizer.dataLinkVisualizer fadeOutMode "\"realTime\""
attr enum realTime,animationTime,simulationTime
par MangMoPhong.visualizer.canvasVisualizer.dataLinkVisualizer fadeOutTime 1s
attr unit s
par MangMoPhong.visualizer.canvasVisualizer.dataLinkVisualizer fadeOutAnimationSpeed 0
par MangMoPhong.visualizer.canvasVisualizer.dataLinkVisualizer holdAnimationTime 0s
attr unit s
par MangMoPhong.visualizer.canvasVisualizer.dataLinkVisualizer zIndex 2
par MangMoPhong.visualizer.canvasVisualizer.linkBreakVisualizer typename "\"inet.visualizer.canvas.linklayer.LinkBreakCanvasVisualizer\""
par MangMoPhong.visualizer.canvasVisualizer.linkBreakVisualizer visualizationTargetModule "\"^.^.^\""
par MangMoPhong.visualizer.canvasVisualizer.linkBreakVisualizer visualizationSubjectModule "\"^.^.^\""
par MangMoPhong.visualizer.canvasVisualizer.linkBreakVisualizer tags "\"\""
par MangMoPhong.visualizer.canvasVisualizer.linkBreakVisualizer displayLinkBreaks false
par MangMoPhong.visualizer.canvasVisualizer.linkBreakVisualizer nodeFilter "\"*\""
attr mutable ""
par MangMoPhong.visualizer.canvasVisualizer.linkBreakVisualizer interfaceFilter "\"*\""
attr mutable ""
par MangMoPhong.visualizer.canvasVisualizer.linkBreakVisualizer packetFilter "(omnetpp::cValueHolder)holder: \"*\""
attr mutable ""
par MangMoPhong.visualizer.canvasVisualizer.linkBreakVisualizer icon "\"status/stop\""
par MangMoPhong.visualizer.canvasVisualizer.linkBreakVisualizer iconTintAmount 0
par MangMoPhong.visualizer.canvasVisualizer.linkBreakVisualizer iconTintColor "\"\""
par MangMoPhong.visualizer.canvasVisualizer.linkBreakVisualizer fadeOutMode "\"realTime\""
attr enum realTime,animationTime,simulationTime
par MangMoPhong.visualizer.canvasVisualizer.linkBreakVisualizer fadeOutTime 1s
attr unit s
par MangMoPhong.visualizer.canvasVisualizer.linkBreakVisualizer fadeOutAnimationSpeed 0
par MangMoPhong.visualizer.canvasVisualizer.linkBreakVisualizer zIndex 2
par MangMoPhong.visualizer.canvasVisualizer.ieee80211Visualizer typename "\"inet.visualizer.canvas.linklayer.Ieee80211CanvasVisualizer\""
par MangMoPhong.visualizer.canvasVisualizer.ieee80211Visualizer visualizationTargetModule "\"^.^.^\""
par MangMoPhong.visualizer.canvasVisualizer.ieee80211Visualizer visualizationSubjectModule "\"^.^.^\""
par MangMoPhong.visualizer.canvasVisualizer.ieee80211Visualizer tags "\"\""
par MangMoPhong.visualizer.canvasVisualizer.ieee80211Visualizer networkNodeVisualizerModule "\"^.networkNodeVisualizer\""
par MangMoPhong.visualizer.canvasVisualizer.ieee80211Visualizer displayAssociations false
par MangMoPhong.visualizer.canvasVisualizer.ieee80211Visualizer nodeFilter "\"*\""
attr mutable ""
par MangMoPhong.visualizer.canvasVisualizer.ieee80211Visualizer interfaceFilter "\"*\""
attr mutable ""
par MangMoPhong.visualizer.canvasVisualizer.ieee80211Visualizer minPower -85dBm
attr unit dBm
par MangMoPhong.visualizer.canvasVisualizer.ieee80211Visualizer maxPower -50dBm
attr unit dBm
par MangMoPhong.visualizer.canvasVisualizer.ieee80211Visualizer icons "\"misc/signal_power_0 misc/signal_power_1 misc/signal_power_2 misc/signal_power_3\""
par MangMoPhong.visualizer.canvasVisualizer.ieee80211Visualizer iconColor "\"dark\""
attr enum light,dark
par MangMoPhong.visualizer.canvasVisualizer.ieee80211Visualizer labelFont "\"<default>\""
par MangMoPhong.visualizer.canvasVisualizer.ieee80211Visualizer labelColor "\"black\""
par MangMoPhong.visualizer.canvasVisualizer.ieee80211Visualizer placementHint "\"top\""
par MangMoPhong.visualizer.canvasVisualizer.ieee80211Visualizer placementPriority 0
par MangMoPhong.visualizer.canvasVisualizer.ieee80211Visualizer zIndex 2
par MangMoPhong.visualizer.canvasVisualizer.networkRouteVisualizer typename "\"inet.visualizer.canvas.networklayer.NetworkRouteCanvasVisualizer\""
par MangMoPhong.visualizer.canvasVisualizer.networkRouteVisualizer visualizationTargetModule "\"^.^.^\""
par MangMoPhong.visualizer.canvasVisualizer.networkRouteVisualizer visualizationSubjectModule "\"^.^.^\""
par MangMoPhong.visualizer.canvasVisualizer.networkRouteVisualizer tags "\"\""
par MangMoPhong.visualizer.canvasVisualizer.networkRouteVisualizer displayRoutes true
par MangMoPhong.visualizer.canvasVisualizer.networkRouteVisualizer startPathSignal "\"packetReceivedFromUpper\""
par MangMoPhong.visualizer.canvasVisualizer.networkRouteVisualizer extendPathSignal "\"packetReceivedFromLower\""
par MangMoPhong.visualizer.canvasVisualizer.networkRouteVisualizer endPathSignal "\"packetSentToUpper\""
par MangMoPhong.visualizer.canvasVisualizer.networkRouteVisualizer nodeFilter "\"*\""
attr mutable ""
par MangMoPhong.visualizer.canvasVisualizer.networkRouteVisualizer packetFilter "(omnetpp::cValueHolder)holder: \"*\""
attr mutable ""
par MangMoPhong.visualizer.canvasVisualizer.networkRouteVisualizer lineColor "\"dark\""
attr enum light,dark
par MangMoPhong.visualizer.canvasVisualizer.networkRouteVisualizer lineStyle "\"solid\""
par MangMoPhong.visualizer.canvasVisualizer.networkRouteVisualizer lineWidth 3
par MangMoPhong.visualizer.canvasVisualizer.networkRouteVisualizer lineSmooth false
par MangMoPhong.visualizer.canvasVisualizer.networkRouteVisualizer lineShift 16
par MangMoPhong.visualizer.canvasVisualizer.networkRouteVisualizer lineShiftMode "\"normal\""
par MangMoPhong.visualizer.canvasVisualizer.networkRouteVisualizer lineContactSpacing 3
par MangMoPhong.visualizer.canvasVisualizer.networkRouteVisualizer lineContactMode "\"rectangular\""
attr enum circular,rectangular
par MangMoPhong.visualizer.canvasVisualizer.networkRouteVisualizer labelFormat "\"%n\""
par MangMoPhong.visualizer.canvasVisualizer.networkRouteVisualizer labelFont "\"<default>, 8px\""
par MangMoPhong.visualizer.canvasVisualizer.networkRouteVisualizer labelColor "\"\""
par MangMoPhong.visualizer.canvasVisualizer.networkRouteVisualizer fadeOutMode "\"realTime\""
attr enum realTime,animationTime,simulationTime
par MangMoPhong.visualizer.canvasVisualizer.networkRouteVisualizer fadeOutTime 1s
attr unit s
par MangMoPhong.visualizer.canvasVisualizer.networkRouteVisualizer fadeOutAnimationSpeed 0
par MangMoPhong.visualizer.canvasVisualizer.networkRouteVisualizer zIndex 3
par MangMoPhong.visualizer.canvasVisualizer.routingTableVisualizer typename "\"inet.visualizer.canvas.networklayer.RoutingTableCanvasVisualizer\""
par MangMoPhong.visualizer.canvasVisualizer.routingTableVisualizer visualizationTargetModule "\"^.^.^\""
par MangMoPhong.visualizer.canvasVisualizer.routingTableVisualizer visualizationSubjectModule "\"^.^.^\""
par MangMoPhong.visualizer.canvasVisualizer.routingTableVisualizer tags "\"\""
par MangMoPhong.visualizer.canvasVisualizer.routingTableVisualizer displayRoutingTables false
par MangMoPhong.visualizer.canvasVisualizer.routingTableVisualizer displayRoutesIndividually true
par MangMoPhong.visualizer.canvasVisualizer.routingTableVisualizer displayLabels true
par MangMoPhong.visualizer.canvasVisualizer.routingTableVisualizer destinationFilter "\"*\""
attr mutable ""
par MangMoPhong.visualizer.canvasVisualizer.routingTableVisualizer nodeFilter "\"*\""
attr mutable ""
par MangMoPhong.visualizer.canvasVisualizer.routingTableVisualizer lineColor "\"black\""
par MangMoPhong.visualizer.canvasVisualizer.routingTableVisualizer lineStyle "\"solid\""
par MangMoPhong.visualizer.canvasVisualizer.routingTableVisualizer lineWidth 2
par MangMoPhong.visualizer.canvasVisualizer.routingTableVisualizer lineShift 16
par MangMoPhong.visualizer.canvasVisualizer.routingTableVisualizer lineShiftMode "\"normal\""
par MangMoPhong.visualizer.canvasVisualizer.routingTableVisualizer lineContactSpacing 3
par MangMoPhong.visualizer.canvasVisualizer.routingTableVisualizer lineContactMode "\"rectangular\""
attr enum circular,rectangular
par MangMoPhong.visualizer.canvasVisualizer.routingTableVisualizer labelFormat "\"%d/%m -> %g (%n)\""
attr mutable ""
par MangMoPhong.visualizer.canvasVisualizer.routingTableVisualizer labelFont "\"<default>, 8px\""
par MangMoPhong.visualizer.canvasVisualizer.routingTableVisualizer labelColor "\"black\""
par MangMoPhong.visualizer.canvasVisualizer.routingTableVisualizer zIndex 0
par MangMoPhong.visualizer.canvasVisualizer.transportRouteVisualizer typename "\"inet.visualizer.canvas.transportlayer.TransportRouteCanvasVisualizer\""
par MangMoPhong.visualizer.canvasVisualizer.transportRouteVisualizer visualizationTargetModule "\"^.^.^\""
par MangMoPhong.visualizer.canvasVisualizer.transportRouteVisualizer visualizationSubjectModule "\"^.^.^\""
par MangMoPhong.visualizer.canvasVisualizer.transportRouteVisualizer tags "\"\""
par MangMoPhong.visualizer.canvasVisualizer.transportRouteVisualizer displayRoutes false
par MangMoPhong.visualizer.canvasVisualizer.transportRouteVisualizer startPathSignal "\"packetReceivedFromUpper\""
par MangMoPhong.visualizer.canvasVisualizer.transportRouteVisualizer extendPathSignal "\"packetReceivedFromLower\""
par MangMoPhong.visualizer.canvasVisualizer.transportRouteVisualizer endPathSignal "\"packetSentToUpper\""
par MangMoPhong.visualizer.canvasVisualizer.transportRouteVisualizer nodeFilter "\"*\""
attr mutable ""
par MangMoPhong.visualizer.canvasVisualizer.transportRouteVisualizer packetFilter "(omnetpp::cValueHolder)holder: \"*\""
attr mutable ""
par MangMoPhong.visualizer.canvasVisualizer.transportRouteVisualizer lineColor "\"dark\""
attr enum light,dark
par MangMoPhong.visualizer.canvasVisualizer.transportRouteVisualizer lineStyle "\"solid\""
par MangMoPhong.visualizer.canvasVisualizer.transportRouteVisualizer lineWidth 3
par MangMoPhong.visualizer.canvasVisualizer.transportRouteVisualizer lineSmooth false
par MangMoPhong.visualizer.canvasVisualizer.transportRouteVisualizer lineShift 16
par MangMoPhong.visualizer.canvasVisualizer.transportRouteVisualizer lineShiftMode "\"normal\""
par MangMoPhong.visualizer.canvasVisualizer.transportRouteVisualizer lineContactSpacing 3
par MangMoPhong.visualizer.canvasVisualizer.transportRouteVisualizer lineContactMode "\"rectangular\""
attr enum circular,rectangular
par MangMoPhong.visualizer.canvasVisualizer.transportRouteVisualizer labelFormat "\"%n\""
par MangMoPhong.visualizer.canvasVisualizer.transportRouteVisualizer labelFont "\"<default>, 8px\""
par MangMoPhong.visualizer.canvasVisualizer.transportRouteVisualizer labelColor "\"\""
par MangMoPhong.visualizer.canvasVisualizer.transportRouteVisualizer fadeOutMode "\"realTime\""
attr enum realTime,animationTime,simulationTime
par MangMoPhong.visualizer.canvasVisualizer.transportRouteVisualizer fadeOutTime 1s
attr unit s
par MangMoPhong.visualizer.canvasVisualizer.transportRouteVisualizer fadeOutAnimationSpeed 0
par MangMoPhong.visualizer.canvasVisualizer.transportRouteVisualizer zIndex 4
par MangMoPhong.visualizer.canvasVisualizer.transportConnectionVisualizer typename "\"inet.visualizer.canvas.transportlayer.TransportConnectionCanvasVisualizer\""
par MangMoPhong.visualizer.canvasVisualizer.transportConnectionVisualizer visualizationTargetModule "\"^.^.^\""
par MangMoPhong.visualizer.canvasVisualizer.transportConnectionVisualizer visualizationSubjectModule "\"^.^.^\""
par MangMoPhong.visualizer.canvasVisualizer.transportConnectionVisualizer tags "\"\""
par MangMoPhong.visualizer.canvasVisualizer.transportConnectionVisualizer networkNodeVisualizerModule "\"^.networkNodeVisualizer\""
par MangMoPhong.visualizer.canvasVisualizer.transportConnectionVisualizer displayTransportConnections false
par MangMoPhong.visualizer.canvasVisualizer.transportConnectionVisualizer sourceNodeFilter "\"*\""
attr mutable ""
par MangMoPhong.visualizer.canvasVisualizer.transportConnectionVisualizer sourcePortFilter "\"*\""
attr mutable ""
par MangMoPhong.visualizer.canvasVisualizer.transportConnectionVisualizer destinationNodeFilter "\"*\""
attr mutable ""
par MangMoPhong.visualizer.canvasVisualizer.transportConnectionVisualizer destinationPortFilter "\"*\""
attr mutable ""
par MangMoPhong.visualizer.canvasVisualizer.transportConnectionVisualizer icon "\"misc/marker_s\""
par MangMoPhong.visualizer.canvasVisualizer.transportConnectionVisualizer iconColor "\"dark\""
attr enum light,dark
par MangMoPhong.visualizer.canvasVisualizer.transportConnectionVisualizer labelFont "\"<default>\""
par MangMoPhong.visualizer.canvasVisualizer.transportConnectionVisualizer labelColor "\"black\""
par MangMoPhong.visualizer.canvasVisualizer.transportConnectionVisualizer placementHint "\"top\""
par MangMoPhong.visualizer.canvasVisualizer.transportConnectionVisualizer placementPriority 0
par MangMoPhong.visualizer.canvasVisualizer.transportConnectionVisualizer zIndex 4
par MangMoPhong.visualizer.canvasVisualizer.failureProtectionConfigurationVisualizer typename "\"inet.visualizer.canvas.configurator.FailureProtectionConfigurationCanvasVisualizer\""
par MangMoPhong.visualizer.canvasVisualizer.failureProtectionConfigurationVisualizer visualizationTargetModule "\"^.^.^\""
par MangMoPhong.visualizer.canvasVisualizer.failureProtectionConfigurationVisualizer visualizationSubjectModule "\"^.^.^\""
par MangMoPhong.visualizer.canvasVisualizer.failureProtectionConfigurationVisualizer tags "\"\""
par MangMoPhong.visualizer.canvasVisualizer.failureProtectionConfigurationVisualizer displayTrees false
par MangMoPhong.visualizer.canvasVisualizer.failureProtectionConfigurationVisualizer lineColor "\"dark\""
attr enum light,dark
par MangMoPhong.visualizer.canvasVisualizer.failureProtectionConfigurationVisualizer lineStyle "\"solid\""
par MangMoPhong.visualizer.canvasVisualizer.failureProtectionConfigurationVisualizer lineWidth 3
par MangMoPhong.visualizer.canvasVisualizer.failureProtectionConfigurationVisualizer lineSmooth false
par MangMoPhong.visualizer.canvasVisualizer.failureProtectionConfigurationVisualizer lineShift 16
par MangMoPhong.visualizer.canvasVisualizer.failureProtectionConfigurationVisualizer lineShiftMode "\"normal\""
par MangMoPhong.visualizer.canvasVisualizer.failureProtectionConfigurationVisualizer lineContactSpacing 3
par MangMoPhong.visualizer.canvasVisualizer.failureProtectionConfigurationVisualizer lineContactMode "\"rectangular\""
attr enum circular,rectangular
par MangMoPhong.visualizer.canvasVisualizer.failureProtectionConfigurationVisualizer failureProtectionConfiguratorModule "\"failureProtectionConfigurator\""
par MangMoPhong.visualizer.canvasVisualizer.failureProtectionConfigurationVisualizer streamFilter "\"*\""
par MangMoPhong.visualizer.canvasVisualizer.failureProtectionConfigurationVisualizer zIndex 3
par MangMoPhong.visualizer.canvasVisualizer.streamRedundancyConfigurationVisualizer typename "\"inet.visualizer.canvas.configurator.StreamRedundancyConfigurationCanvasVisualizer\""
par MangMoPhong.visualizer.canvasVisualizer.streamRedundancyConfigurationVisualizer visualizationTargetModule "\"^.^.^\""
par MangMoPhong.visualizer.canvasVisualizer.streamRedundancyConfigurationVisualizer visualizationSubjectModule "\"^.^.^\""
par MangMoPhong.visualizer.canvasVisualizer.streamRedundancyConfigurationVisualizer tags "\"\""
par MangMoPhong.visualizer.canvasVisualizer.streamRedundancyConfigurationVisualizer displayTrees false
par MangMoPhong.visualizer.canvasVisualizer.streamRedundancyConfigurationVisualizer lineColor "\"dark\""
attr enum light,dark
par MangMoPhong.visualizer.canvasVisualizer.streamRedundancyConfigurationVisualizer lineStyle "\"solid\""
par MangMoPhong.visualizer.canvasVisualizer.streamRedundancyConfigurationVisualizer lineWidth 3
par MangMoPhong.visualizer.canvasVisualizer.streamRedundancyConfigurationVisualizer lineSmooth false
par MangMoPhong.visualizer.canvasVisualizer.streamRedundancyConfigurationVisualizer lineShift 16
par MangMoPhong.visualizer.canvasVisualizer.streamRedundancyConfigurationVisualizer lineShiftMode "\"normal\""
par MangMoPhong.visualizer.canvasVisualizer.streamRedundancyConfigurationVisualizer lineContactSpacing 3
par MangMoPhong.visualizer.canvasVisualizer.streamRedundancyConfigurationVisualizer lineContactMode "\"rectangular\""
attr enum circular,rectangular
par MangMoPhong.visualizer.canvasVisualizer.streamRedundancyConfigurationVisualizer streamRedundancyConfiguratorModule "\"streamRedundancyConfigurator\""
par MangMoPhong.visualizer.canvasVisualizer.streamRedundancyConfigurationVisualizer streamFilter "\"*\""
par MangMoPhong.visualizer.canvasVisualizer.streamRedundancyConfigurationVisualizer zIndex 3
par MangMoPhong.visualizer.canvasVisualizer typename "\"inet.visualizer.canvas.integrated.IntegratedCanvasVisualizer\""
par MangMoPhong.visualizer.osgVisualizer.sceneVisualizer typename "\"inet.visualizer.osg.scene.SceneOsgVisualizer\""
par MangMoPhong.visualizer.osgVisualizer.sceneVisualizer visualizationTargetModule "\"^.^.^\""
par MangMoPhong.visualizer.osgVisualizer.sceneVisualizer visualizationSubjectModule "\"^.^.^\""
par MangMoPhong.visualizer.osgVisualizer.sceneVisualizer tags "\"\""
par MangMoPhong.visualizer.osgVisualizer.sceneVisualizer physicalEnvironmentModule "\"physicalEnvironment\""
par MangMoPhong.visualizer.osgVisualizer.sceneVisualizer networkNodeVisualizerModule "\"^.networkNodeVisualizer\""
par MangMoPhong.visualizer.osgVisualizer.sceneVisualizer axisLength 6200m
attr mutable ""
attr unit m
par MangMoPhong.visualizer.osgVisualizer.sceneVisualizer animationSpeed 0
par MangMoPhong.visualizer.osgVisualizer.sceneVisualizer sceneMinX -1000m
attr unit m
par MangMoPhong.visualizer.osgVisualizer.sceneVisualizer sceneMinY -1000m
attr unit m
par MangMoPhong.visualizer.osgVisualizer.sceneVisualizer sceneMinZ 100m
attr unit m
par MangMoPhong.visualizer.osgVisualizer.sceneVisualizer sceneMaxX 6100m
attr unit m
par MangMoPhong.visualizer.osgVisualizer.sceneVisualizer sceneMaxY 6100m
attr unit m
par MangMoPhong.visualizer.osgVisualizer.sceneVisualizer sceneMaxZ 1000m
attr unit m
par MangMoPhong.visualizer.osgVisualizer.sceneVisualizer cameraManipulator "\"auto\""
attr enum auto,trackball,overview,terrain,earth
par MangMoPhong.visualizer.osgVisualizer.sceneVisualizer cameraDistanceFactor 5
par MangMoPhong.visualizer.osgVisualizer.sceneVisualizer zNear 1m
attr unit m
par MangMoPhong.visualizer.osgVisualizer.sceneVisualizer zFar 100000m
attr unit m
par MangMoPhong.visualizer.osgVisualizer.sceneVisualizer fieldOfView 30deg
attr unit deg
par MangMoPhong.visualizer.osgVisualizer.sceneVisualizer clearColor "\"skyblue\""
par MangMoPhong.visualizer.osgVisualizer.sceneVisualizer displayScene true
par MangMoPhong.visualizer.osgVisualizer.sceneVisualizer sceneColor "\"#A0E0A0\""
par MangMoPhong.visualizer.osgVisualizer.sceneVisualizer sceneOpacity 1
par MangMoPhong.visualizer.osgVisualizer.sceneVisualizer sceneImage "\"showcases/desert\""
par MangMoPhong.visualizer.osgVisualizer.sceneVisualizer sceneImageSize 6000m
attr unit m
par MangMoPhong.visualizer.osgVisualizer.sceneVisualizer sceneShading true
par MangMoPhong.visualizer.osgVisualizer.physicalEnvironmentVisualizer typename "\"inet.visualizer.osg.environment.PhysicalEnvironmentOsgVisualizer\""
par MangMoPhong.visualizer.osgVisualizer.physicalEnvironmentVisualizer visualizationTargetModule "\"^.^.^\""
par MangMoPhong.visualizer.osgVisualizer.physicalEnvironmentVisualizer visualizationSubjectModule "\"^.^.^\""
par MangMoPhong.visualizer.osgVisualizer.physicalEnvironmentVisualizer tags "\"\""
par MangMoPhong.visualizer.osgVisualizer.physicalEnvironmentVisualizer physicalEnvironmentModule "\"physicalEnvironment\""
par MangMoPhong.visualizer.osgVisualizer.physicalEnvironmentVisualizer displayObjects true
par MangMoPhong.visualizer.osgVisualizer.physicalEnvironmentVisualizer enableObjectOpacity true
par MangMoPhong.visualizer.osgVisualizer.networkNodeVisualizer typename "\"inet.visualizer.osg.scene.NetworkNodeOsgVisualizer\""
par MangMoPhong.visualizer.osgVisualizer.networkNodeVisualizer visualizationTargetModule "\"^.^.^\""
par MangMoPhong.visualizer.osgVisualizer.networkNodeVisualizer visualizationSubjectModule "\"^.^.^\""
par MangMoPhong.visualizer.osgVisualizer.networkNodeVisualizer tags "\"\""
par MangMoPhong.visualizer.osgVisualizer.networkNodeVisualizer nodeFilter "\"*\""
attr mutable ""
par MangMoPhong.visualizer.osgVisualizer.networkNodeVisualizer annotationSpacing 4
par MangMoPhong.visualizer.osgVisualizer.networkNodeVisualizer placementPenalty 10
par MangMoPhong.visualizer.osgVisualizer.networkNodeVisualizer displayModuleName true
par MangMoPhong.visualizer.osgVisualizer.networkConnectionVisualizer typename "\"inet.visualizer.osg.scene.NetworkConnectionOsgVisualizer\""
par MangMoPhong.visualizer.osgVisualizer.networkConnectionVisualizer visualizationTargetModule "\"^.^.^\""
par MangMoPhong.visualizer.osgVisualizer.networkConnectionVisualizer visualizationSubjectModule "\"^.^.^\""
par MangMoPhong.visualizer.osgVisualizer.networkConnectionVisualizer tags "\"\""
par MangMoPhong.visualizer.osgVisualizer.networkConnectionVisualizer displayNetworkConnections true
par MangMoPhong.visualizer.osgVisualizer.networkConnectionVisualizer nodeFilter "\"*\""
attr mutable ""
par MangMoPhong.visualizer.osgVisualizer.networkConnectionVisualizer lineColor "\"black\""
par MangMoPhong.visualizer.osgVisualizer.networkConnectionVisualizer lineStyle "\"solid\""
par MangMoPhong.visualizer.osgVisualizer.networkConnectionVisualizer lineWidth 1
par MangMoPhong.visualizer.osgVisualizer.mobilityVisualizer typename "\"inet.visualizer.osg.mobility.MobilityOsgVisualizer\""
par MangMoPhong.visualizer.osgVisualizer.mobilityVisualizer visualizationTargetModule "\"^.^.^\""
par MangMoPhong.visualizer.osgVisualizer.mobilityVisualizer visualizationSubjectModule "\"^.^.^\""
par MangMoPhong.visualizer.osgVisualizer.mobilityVisualizer tags "\"\""
par MangMoPhong.visualizer.osgVisualizer.mobilityVisualizer networkNodeVisualizerModule "\"^.networkNodeVisualizer\""
par MangMoPhong.visualizer.osgVisualizer.mobilityVisualizer displayMobility true
par MangMoPhong.visualizer.osgVisualizer.mobilityVisualizer animationSpeed 0
par MangMoPhong.visualizer.osgVisualizer.mobilityVisualizer moduleFilter "\"**.mobility\""
attr mutable ""
par MangMoPhong.visualizer.osgVisualizer.mobilityVisualizer displayPositions false
par MangMoPhong.visualizer.osgVisualizer.mobilityVisualizer positionCircleRadius 4
par MangMoPhong.visualizer.osgVisualizer.mobilityVisualizer positionCircleLineWidth 1
par MangMoPhong.visualizer.osgVisualizer.mobilityVisualizer positionCircleLineColor "\"dark\""
attr enum light,dark
par MangMoPhong.visualizer.osgVisualizer.mobilityVisualizer positionCircleFillColor "\"dark\""
attr enum light,dark
par MangMoPhong.visualizer.osgVisualizer.mobilityVisualizer displayOrientations false
par MangMoPhong.visualizer.osgVisualizer.mobilityVisualizer orientationPieRadius 32
par MangMoPhong.visualizer.osgVisualizer.mobilityVisualizer orientationPieSize 0.2
par MangMoPhong.visualizer.osgVisualizer.mobilityVisualizer orientationPieOpacity 0.25
par MangMoPhong.visualizer.osgVisualizer.mobilityVisualizer orientationLineColor "\"black\""
par MangMoPhong.visualizer.osgVisualizer.mobilityVisualizer orientationLineStyle "\"solid\""
par MangMoPhong.visualizer.osgVisualizer.mobilityVisualizer orientationLineWidth 1
par MangMoPhong.visualizer.osgVisualizer.mobilityVisualizer orientationFillColor "\"blue\""
par MangMoPhong.visualizer.osgVisualizer.mobilityVisualizer displayVelocities false
par MangMoPhong.visualizer.osgVisualizer.mobilityVisualizer velocityArrowScale 1
par MangMoPhong.visualizer.osgVisualizer.mobilityVisualizer velocityLineColor "\"black\""
par MangMoPhong.visualizer.osgVisualizer.mobilityVisualizer velocityLineStyle "\"solid\""
par MangMoPhong.visualizer.osgVisualizer.mobilityVisualizer velocityLineWidth 1
par MangMoPhong.visualizer.osgVisualizer.mobilityVisualizer displayMovementTrails false
par MangMoPhong.visualizer.osgVisualizer.mobilityVisualizer movementTrailLineColor "\"dark\""
attr enum light,dark
par MangMoPhong.visualizer.osgVisualizer.mobilityVisualizer movementTrailLineStyle "\"solid\""
par MangMoPhong.visualizer.osgVisualizer.mobilityVisualizer movementTrailLineWidth 1
par MangMoPhong.visualizer.osgVisualizer.mobilityVisualizer trailLength 100
par MangMoPhong.visualizer.osgVisualizer.statisticVisualizer typename "\"inet.visualizer.osg.common.StatisticOsgVisualizer\""
par MangMoPhong.visualizer.osgVisualizer.statisticVisualizer visualizationTargetModule "\"^.^.^\""
par MangMoPhong.visualizer.osgVisualizer.statisticVisualizer visualizationSubjectModule "\"^.^.^\""
par MangMoPhong.visualizer.osgVisualizer.statisticVisualizer tags "\"\""
par MangMoPhong.visualizer.osgVisualizer.statisticVisualizer networkNodeVisualizerModule "\"^.networkNodeVisualizer\""
par MangMoPhong.visualizer.osgVisualizer.statisticVisualizer displayStatistics true
par MangMoPhong.visualizer.osgVisualizer.statisticVisualizer signalName "\"\""
par MangMoPhong.visualizer.osgVisualizer.statisticVisualizer statisticName "\"\""
par MangMoPhong.visualizer.osgVisualizer.statisticVisualizer statisticUnit "\"\""
par MangMoPhong.visualizer.osgVisualizer.statisticVisualizer statisticExpression "\"\""
par MangMoPhong.visualizer.osgVisualizer.statisticVisualizer sourceFilter "\"**\""
attr mutable ""
par MangMoPhong.visualizer.osgVisualizer.statisticVisualizer format "\"%n: %v %u\""
attr mutable ""
par MangMoPhong.visualizer.osgVisualizer.statisticVisualizer unit "\"\""
par MangMoPhong.visualizer.osgVisualizer.statisticVisualizer font "\"<default>\""
par MangMoPhong.visualizer.osgVisualizer.statisticVisualizer textColor "\"black\""
par MangMoPhong.visualizer.osgVisualizer.statisticVisualizer backgroundColor "\"white\""
par MangMoPhong.visualizer.osgVisualizer.statisticVisualizer opacity 1
par MangMoPhong.visualizer.osgVisualizer.statisticVisualizer placementHint "\"top\""
par MangMoPhong.visualizer.osgVisualizer.statisticVisualizer placementPriority 0
par MangMoPhong.visualizer.osgVisualizer.infoVisualizer typename "\"inet.visualizer.osg.common.InfoOsgVisualizer\""
par MangMoPhong.visualizer.osgVisualizer.infoVisualizer visualizationTargetModule "\"^.^.^\""
par MangMoPhong.visualizer.osgVisualizer.infoVisualizer visualizationSubjectModule "\"^.^.^\""
par MangMoPhong.visualizer.osgVisualizer.infoVisualizer tags "\"\""
par MangMoPhong.visualizer.osgVisualizer.infoVisualizer networkNodeVisualizerModule "\"^.networkNodeVisualizer\""
par MangMoPhong.visualizer.osgVisualizer.infoVisualizer displayInfos true
par MangMoPhong.visualizer.osgVisualizer.infoVisualizer modules "\"*.*.app[0]\""
attr mutable ""
par MangMoPhong.visualizer.osgVisualizer.infoVisualizer format "\"%t\""
attr mutable ""
par MangMoPhong.visualizer.osgVisualizer.infoVisualizer font "\"<default>\""
par MangMoPhong.visualizer.osgVisualizer.infoVisualizer textColor "\"black\""
par MangMoPhong.visualizer.osgVisualizer.infoVisualizer backgroundColor "\"white\""
par MangMoPhong.visualizer.osgVisualizer.infoVisualizer opacity 1
par MangMoPhong.visualizer.osgVisualizer.infoVisualizer placementHint "\"topCenter\""
par MangMoPhong.visualizer.osgVisualizer.infoVisualizer placementPriority 0
par MangMoPhong.visualizer.osgVisualizer.energyStorageVisualizer typename "\"inet.visualizer.osg.power.EnergyStorageOsgVisualizer\""
par MangMoPhong.visualizer.osgVisualizer.energyStorageVisualizer visualizationTargetModule "\"^.^.^\""
par MangMoPhong.visualizer.osgVisualizer.energyStorageVisualizer visualizationSubjectModule "\"^.^.^\""
par MangMoPhong.visualizer.osgVisualizer.energyStorageVisualizer tags "\"\""
par MangMoPhong.visualizer.osgVisualizer.energyStorageVisualizer networkNodeVisualizerModule "\"^.networkNodeVisualizer\""
par MangMoPhong.visualizer.osgVisualizer.energyStorageVisualizer displayEnergyStorages false
par MangMoPhong.visualizer.osgVisualizer.energyStorageVisualizer energyStorageFilter "\"**\""
par MangMoPhong.visualizer.osgVisualizer.energyStorageVisualizer color "\"green\""
par MangMoPhong.visualizer.osgVisualizer.energyStorageVisualizer width 8
par MangMoPhong.visualizer.osgVisualizer.energyStorageVisualizer height 24
par MangMoPhong.visualizer.osgVisualizer.energyStorageVisualizer spacing 2
par MangMoPhong.visualizer.osgVisualizer.energyStorageVisualizer placementHint "\"right\""
par MangMoPhong.visualizer.osgVisualizer.energyStorageVisualizer placementPriority 0
par MangMoPhong.visualizer.osgVisualizer.mediumVisualizer typename "\"inet.visualizer.osg.physicallayer.MediumOsgVisualizer\""
par MangMoPhong.visualizer.osgVisualizer.mediumVisualizer visualizationTargetModule "\"^.^.^\""
par MangMoPhong.visualizer.osgVisualizer.mediumVisualizer visualizationSubjectModule "\"^.^.^\""
par MangMoPhong.visualizer.osgVisualizer.mediumVisualizer tags "\"\""
par MangMoPhong.visualizer.osgVisualizer.mediumVisualizer mediumModule "\"radioMedium\""
par MangMoPhong.visualizer.osgVisualizer.mediumVisualizer networkNodeVisualizerModule "\"^.networkNodeVisualizer\""
par MangMoPhong.visualizer.osgVisualizer.mediumVisualizer nodeFilter "\"*\""
attr mutable ""
par MangMoPhong.visualizer.osgVisualizer.mediumVisualizer interfaceFilter "\"*\""
attr mutable ""
par MangMoPhong.visualizer.osgVisualizer.mediumVisualizer packetFilter "(omnetpp::cValueHolder)holder: \"*\""
attr mutable ""
par MangMoPhong.visualizer.osgVisualizer.mediumVisualizer displaySignals false
par MangMoPhong.visualizer.osgVisualizer.mediumVisualizer signalColor "\"dark\""
attr enum light,dark
par MangMoPhong.visualizer.osgVisualizer.mediumVisualizer signalPropagationAnimationSpeed "nan "
attr mutable ""
par MangMoPhong.visualizer.osgVisualizer.mediumVisualizer signalPropagationAnimationTime 1s
attr unit s
par MangMoPhong.visualizer.osgVisualizer.mediumVisualizer signalPropagationAdditionalTime 0s
attr unit s
par MangMoPhong.visualizer.osgVisualizer.mediumVisualizer signalTransmissionAnimationSpeed "nan "
attr mutable ""
par MangMoPhong.visualizer.osgVisualizer.mediumVisualizer signalTransmissionAnimationTime 1s
attr unit s
par MangMoPhong.visualizer.osgVisualizer.mediumVisualizer signalAnimationSpeedChangeTimeMode "\"realTime\""
attr enum realTime,animationTime,simulationTime
par MangMoPhong.visualizer.osgVisualizer.mediumVisualizer signalAnimationSpeedChangeTime 1s
attr unit s
par MangMoPhong.visualizer.osgVisualizer.mediumVisualizer displaySignalDepartures false
par MangMoPhong.visualizer.osgVisualizer.mediumVisualizer signalDepartureImage "\"misc/signal_departure.png\""
par MangMoPhong.visualizer.osgVisualizer.mediumVisualizer signalDeparturePlacementHint "\"topCenter\""
par MangMoPhong.visualizer.osgVisualizer.mediumVisualizer signalDeparturePlacementPriority 1
par MangMoPhong.visualizer.osgVisualizer.mediumVisualizer displaySignalArrivals false
par MangMoPhong.visualizer.osgVisualizer.mediumVisualizer signalArrivalImage "\"misc/signal_arrival.png\""
par MangMoPhong.visualizer.osgVisualizer.mediumVisualizer signalArrivalPlacementHint "\"topCenter\""
par MangMoPhong.visualizer.osgVisualizer.mediumVisualizer signalArrivalPlacementPriority -1
par MangMoPhong.visualizer.osgVisualizer.mediumVisualizer displayCommunicationRanges false
par MangMoPhong.visualizer.osgVisualizer.mediumVisualizer communicationRangeLineColor "\"blue\""
par MangMoPhong.visualizer.osgVisualizer.mediumVisualizer communicationRangeLineStyle "\"solid\""
par MangMoPhong.visualizer.osgVisualizer.mediumVisualizer communicationRangeLineWidth 1
par MangMoPhong.visualizer.osgVisualizer.mediumVisualizer displayInterferenceRanges false
par MangMoPhong.visualizer.osgVisualizer.mediumVisualizer interferenceRangeLineColor "\"gray\""
par MangMoPhong.visualizer.osgVisualizer.mediumVisualizer interferenceRangeLineStyle "\"solid\""
par MangMoPhong.visualizer.osgVisualizer.mediumVisualizer interferenceRangeLineWidth 1
par MangMoPhong.visualizer.osgVisualizer.mediumVisualizer autoPowerAxis true
par MangMoPhong.visualizer.osgVisualizer.mediumVisualizer signalMinPower "inf dBmW"
attr unit dBmW
par MangMoPhong.visualizer.osgVisualizer.mediumVisualizer signalMaxPower 0dBmW
attr unit dBmW
par MangMoPhong.visualizer.osgVisualizer.mediumVisualizer signalMinPowerDensity "inf dBmWpMHz"
attr unit dBmWpMHz
par MangMoPhong.visualizer.osgVisualizer.mediumVisualizer signalMaxPowerDensity "-inf dBmWpMHz"
attr unit dBmWpMHz
par MangMoPhong.visualizer.osgVisualizer.mediumVisualizer autoTimeAxis true
par MangMoPhong.visualizer.osgVisualizer.mediumVisualizer signalMinTime 0s
attr unit s
par MangMoPhong.visualizer.osgVisualizer.mediumVisualizer signalMaxTime 0s
attr unit s
par MangMoPhong.visualizer.osgVisualizer.mediumVisualizer autoFrequencyAxis true
par MangMoPhong.visualizer.osgVisualizer.mediumVisualizer signalMinFrequency "inf Hz"
attr unit Hz
par MangMoPhong.visualizer.osgVisualizer.mediumVisualizer signalMaxFrequency "-inf Hz"
attr unit Hz
par MangMoPhong.visualizer.osgVisualizer.mediumVisualizer displayMainPowerDensityMap false
[...]
bin	460	0
bin	480	0
bin	500	0
bin	520	0
bin	540	0
bin	560	0
bin	580	0
bin	600	32
bin	620	0
bin	640	0
bin	660	0
bin	680	0
bin	700	0
bin	720	0
bin	740	0
bin	760	0
bin	780	235
bin	800	0
bin	820	0
bin	840	28
bin	860	0
bin	880	0
bin	900	0
bin	920	0
bin	940	0
bin	960	0
bin	980	0
bin	1000	0
bin	1020	0
bin	1040	0
bin	1060	0
bin	1080	0
bin	1100	0
bin	1120	0
bin	1140	0
bin	1160	0
bin	1180	0
bin	1200	0
bin	1220	0
bin	1240	0
bin	1260	0
bin	1280	0
bin	1300	0
bin	1320	0
bin	1340	0
bin	1360	0
bin	1380	0
bin	1400	0
bin	1420	35
bin	1440	0
bin	1460	0
bin	1480	0
bin	1500	0
bin	1520	0
bin	1540	0
bin	1560	0
bin	1580	0
bin	1600	0
bin	1620	31
bin	1640	0
bin	1660	0
bin	1680	0
bin	1700	0
bin	1720	0
bin	1740	0
bin	1760	0
bin	1780	0
bin	1800	0
bin	1820	0
bin	1840	0
bin	1860	0
bin	1880	0
bin	1900	0
bin	1920	0
bin	1940	0
bin	1960	0
bin	1980	0
bin	2000	0
statistic MangMoPhong.U25.wlan[0].radio packetErrorRate:histogram
field count 917
field mean 0.0032715376226853
field stddev 0.057134880129712
field min 0
field max 1
field sum 3.0000000000024
field sqrsum 3
attr recordingmode histogram
attr source packetErrorRate(packetSentToUpper)
attr title "Packet error rate"
bin	-inf	0
bin	0	914
bin	0.02	0
bin	0.04	0
bin	0.06	0
bin	0.08	0
bin	0.1	0
bin	0.12	0
bin	0.14	0
bin	0.16	0
bin	0.18	0
bin	0.2	0
bin	0.22	0
bin	0.24	0
bin	0.26	0
bin	0.28	0
bin	0.3	0
bin	0.32	0
bin	0.34	0
bin	0.36	0
bin	0.38	0
bin	0.4	0
bin	0.42	0
bin	0.44	0
bin	0.46	0
bin	0.48	0
bin	0.5	0
bin	0.52	0
bin	0.54	0
bin	0.56	0
bin	0.58	0
bin	0.6	0
bin	0.62	0
bin	0.64	0
bin	0.66	0
bin	0.68	0
bin	0.7	0
bin	0.72	0
bin	0.74	0
bin	0.76	0
bin	0.78	0
bin	0.8	0
bin	0.82	0
bin	0.84	0
bin	0.86	0
bin	0.88	0
bin	0.9	0
bin	0.92	0
bin	0.94	0
bin	0.96	0
bin	0.98	0
bin	1	3
bin	1.02	0
statistic MangMoPhong.U25.wlan[0].radio bitErrorRate:histogram
field count 0
field mean nan
field stddev nan
field min nan
field max nan
field sum 0
field sqrsum 0
attr recordingmode histogram
attr source bitErrorRate(packetSentToUpper)
attr title "Bit error rate"
bin	-inf	0
bin	0	0
bin	1	0
statistic MangMoPhong.U25.wlan[0].radio symbolErrorRate:histogram
field count 0
field mean nan
field stddev nan
field min nan
field max nan
field sum 0
field sqrsum 0
attr recordingmode histogram
attr source symbolErrorRate(packetSentToUpper)
attr title "Symbol error rate"
bin	-inf	0
bin	0	0
bin	1	0
scalar MangMoPhong.U25.wlan[0].radio transmissionState:count 112
attr interpolationmode sample-hold
attr recordingmode count
attr source transmissionStateChanged
attr title "Radio transmission state, count"
scalar MangMoPhong.U25.wlan[0].radio receptionState:count 1891
attr interpolationmode sample-hold
attr recordingmode count
attr source receptionStateChanged
attr title "Radio reception state, count"
scalar MangMoPhong.U25.wlan[0].radio radioMode:count 59
attr interpolationmode sample-hold
attr recordingmode count
attr source radioModeChanged
attr title "Radio mode, count"
statistic MangMoPhong.U25.wlan[0].radio radioChannel:histogram
field count 1
field mean 0
field stddev nan
field min 0
field max 0
field sum 0
field sqrsum 0
attr interpolationmode sample-hold
attr recordingmode histogram
attr source radioChannelChanged
attr title "Radio channel"
bin	-inf	0
bin	-0.5	0
bin	-0.48	0
bin	-0.46	0
bin	-0.44	0
bin	-0.42	0
bin	-0.4	0
bin	-0.38	0
bin	-0.36	0
bin	-0.34	0
bin	-0.32	0
bin	-0.3	0
bin	-0.28	0
bin	-0.26	0
bin	-0.24	0
bin	-0.22	0
bin	-0.2	0
bin	-0.18	0
bin	-0.16	0
bin	-0.14	0
bin	-0.12	0
bin	-0.1	0
bin	-0.08	0
bin	-0.06	0
bin	-0.04	0
bin	-0.02	0
bin	0	1
bin	0.02	0
bin	0.04	0
bin	0.06	0
bin	0.08	0
bin	0.1	0
bin	0.12	0
bin	0.14	0
bin	0.16	0
bin	0.18	0
bin	0.2	0
bin	0.22	0
bin	0.24	0
bin	0.26	0
bin	0.28	0
bin	0.3	0
bin	0.32	0
bin	0.34	0
bin	0.36	0
bin	0.38	0
bin	0.4	0
bin	0.42	0
bin	0.44	0
bin	0.46	0
bin	0.48	0
bin	0.5	0
par MangMoPhong.U25.wlan[0] typename "\"inet.linklayer.ieee80211.Ieee80211Interface\""
par MangMoPhong.U25.wlan[0] displayStringTextFormat "\"%a (%i)\\n%m\""
par MangMoPhong.U25.wlan[0] recordPcap false
par MangMoPhong.U25.wlan[0] numPcapRecorders 0
par MangMoPhong.U25.wlan[0] interfaceTableModule "\"MangMoPhong.U25.interfaceTable\""
par MangMoPhong.U25.wlan[0] energySourceModule "\"\""
par MangMoPhong.U25.wlan[0] opMode "\"g(mixed)\""
attr enum a,b,g(erp),g(mixed),n(mixed-2.4Ghz),p,ac
par MangMoPhong.U25.wlan[0] address "\"0A-AA-00-00-00-1A\""
attr mutable ""
par MangMoPhong.U25.wlan[0] protocol "\"\""
par MangMoPhong.U25.wlan[0] bitrate 3.6e+07bps
attr unit bps
scalar MangMoPhong.U25.wlan[0] packetDropInterfaceDown:count 0
attr interpolationmode none
attr recordingmode count
attr source packetDropReasonIsInterfaceDown(packetDropped)
attr title "packet drops: interface down, count"
scalar MangMoPhong.U25.wlan[0] packetDropInterfaceDown:sum(packetBytes) 0
attr interpolationmode none
attr recordingmode sum(packetBytes)
attr source packetDropReasonIsInterfaceDown(packetDropped)
attr title "packet drops: interface down, sum(packetBytes)"
scalar MangMoPhong.U25.wlan[0] packetDropNoCarrier:count 0
attr interpolationmode none
attr recordingmode count
attr source packetDropReasonIsNoCarrier(packetDropped)
attr title "packet drops: no carrier, count"
scalar MangMoPhong.U25.wlan[0] packetDropNoCarrier:sum(packetBytes) 0
attr interpolationmode none
attr recordingmode sum(packetBytes)
attr source packetDropReasonIsNoCarrier(packetDropped)
attr title "packet drops: no carrier, sum(packetBytes)"
par MangMoPhong.U25.ipv4.transportIn.channel typename "\"ned.IdealChannel\""
par MangMoPhong.U25.ipv4.up.out[0].channel typename "\"ned.IdealChannel\""
par MangMoPhong.U25.ipv4.lp.out[2].channel typename "\"ned.IdealChannel\""
par MangMoPhong.U25.ipv4.ifIn.channel typename "\"ned.IdealChannel\""
par MangMoPhong.U25.ipv4.configurator typename "\"inet.networklayer.configurator.ipv4.Ipv4NodeConfigurator\""
par MangMoPhong.U25.ipv4.configurator interfaceTableModule "\"MangMoPhong.U25.interfaceTable\""
par MangMoPhong.U25.ipv4.configurator routingTableModule "\"MangMoPhong.U25.ipv4.routingTable\""
par MangMoPhong.U25.ipv4.configurator networkConfiguratorModule "\"configurator\""
par MangMoPhong.U25.ipv4.configurator configureRoutingTable true
par MangMoPhong.U25.ipv4.routingTable typename "\"inet.networklayer.ipv4.Ipv4RoutingTable\""
par MangMoPhong.U25.ipv4.routingTable interfaceTableModule "\"MangMoPhong.U25.interfaceTable\""
par MangMoPhong.U25.ipv4.routingTable routerId "\"auto\""
par MangMoPhong.U25.ipv4.routingTable netmaskRoutes "\"*\""
par MangMoPhong.U25.ipv4.routingTable forwarding true
par MangMoPhong.U25.ipv4.routingTable multicastForwarding false
par MangMoPhong.U25.ipv4.routingTable useAdminDist false
par MangMoPhong.U25.ipv4.routingTable routingFile "\"\""
par MangMoPhong.U25.ipv4.natTable typename "\"inet.networklayer.ipv4.Ipv4NatTable\""
par MangMoPhong.U25.ipv4.natTable networkProtocolModule "\"^.ip\""
par MangMoPhong.U25.ipv4.natTable config "<config/> at content:1"
par MangMoPhong.U25.ipv4.up typename "\"inet.common.MessageDispatcher\""
par MangMoPhong.U25.ipv4.up displayStringTextFormat "\"processed %p pk (%l)\""
par MangMoPhong.U25.ipv4.up forwardServiceRegistration true
par MangMoPhong.U25.ipv4.up forwardProtocolRegistration true
par MangMoPhong.U25.ipv4.igmp typename "\"inet.networklayer.ipv4.Igmpv2\""
par MangMoPhong.U25.ipv4.igmp interfaceTableModule "\"MangMoPhong.U25.interfaceTable\""
par MangMoPhong.U25.ipv4.igmp routingTableModule "\"MangMoPhong.U25.ipv4.routingTable\""
par MangMoPhong.U25.ipv4.igmp crcMode "\"declared\""
attr enum declared,computed
par MangMoPhong.U25.ipv4.igmp enabled true
par MangMoPhong.U25.ipv4.igmp robustnessVariable 2
par MangMoPhong.U25.ipv4.igmp queryInterval 125s
attr unit s
par MangMoPhong.U25.ipv4.igmp queryResponseInterval 10s
attr unit s
par MangMoPhong.U25.ipv4.igmp groupMembershipInterval 260s
attr unit s
par MangMoPhong.U25.ipv4.igmp otherQuerierPresentInterval 255s
attr unit s
par MangMoPhong.U25.ipv4.igmp startupQueryInterval 31.25s
attr unit s
par MangMoPhong.U25.ipv4.igmp startupQueryCount 2
par MangMoPhong.U25.ipv4.igmp lastMemberQueryInterval 1s
attr unit s
par MangMoPhong.U25.ipv4.igmp lastMemberQueryCount 2
par MangMoPhong.U25.ipv4.igmp unsolicitedReportInterval 10s
attr unit s
par MangMoPhong.U25.ipv4.icmp typename "\"inet.networklayer.ipv4.Icmp\""
par MangMoPhong.U25.ipv4.icmp interfaceTableModule "\"MangMoPhong.U25.interfaceTable\""
par MangMoPhong.U25.ipv4.icmp routingTableModule "\"MangMoPhong.U25.ipv4.routingTable\""
par MangMoPhong.U25.ipv4.icmp crcMode "\"declared\""
attr enum declared,computed
attr mutable ""
par MangMoPhong.U25.ipv4.icmp quoteLength 8B
attr mutable ""
attr unit B
par MangMoPhong.U25.ipv4.mp typename "\"inet.common.MessageDispatcher\""
par MangMoPhong.U25.ipv4.mp displayStringTextFormat "\"processed %p pk (%l)\""
par MangMoPhong.U25.ipv4.mp forwardServiceRegistration true
par MangMoPhong.U25.ipv4.mp forwardProtocolRegistration true
par MangMoPhong.U25.ipv4.ip typename "\"inet.networklayer.ipv4.Ipv4\""
par MangMoPhong.U25.ipv4.ip interfaceTableModule "\"MangMoPhong.U25.interfaceTable\""
par MangMoPhong.U25.ipv4.ip routingTableModule "\"MangMoPhong.U25.ipv4.routingTable\""
par MangMoPhong.U25.ipv4.ip arpModule "\"MangMoPhong.U25.ipv4.arp\""
par MangMoPhong.U25.ipv4.ip icmpModule "\"MangMoPhong.U25.ipv4.icmp\""
par MangMoPhong.U25.ipv4.ip crcMode "\"declared\""
attr enum declared,computed
par MangMoPhong.U25.ipv4.ip timeToLive 32
par MangMoPhong.U25.ipv4.ip multicastTimeToLive 32
par MangMoPhong.U25.ipv4.ip fragmentTimeout 60s
attr unit s
par MangMoPhong.U25.ipv4.ip limitedBroadcast false
par MangMoPhong.U25.ipv4.ip directBroadcastInterfaces "\"\""
scalar MangMoPhong.U25.ipv4.ip packetDropAddressResolutionFailed:count 0
attr interpolationmode none
attr recordingmode count
attr source packetDropReasonIsAddressResolutionFailed(packetDropped)
attr title "packet drop: address resolution failed, count"
scalar MangMoPhong.U25.ipv4.ip packetDropAddressResolutionFailed:sum(packetBytes) 0
attr interpolationmode none
attr recordingmode sum(packetBytes)
attr source packetDropReasonIsAddressResolutionFailed(packetDropped)
attr title "packet drop: address resolution failed, sum(packetBytes)"
scalar MangMoPhong.U25.ipv4.ip packetDropHopLimitReached:count 0
attr interpolationmode none
attr recordingmode count
attr source packetDropReasonIsHopLimitReached(packetDropped)
attr title "packet drop: hop limit reached, count"
scalar MangMoPhong.U25.ipv4.ip packetDropHopLimitReached:sum(packetBytes) 0
attr interpolationmode none
attr recordingmode sum(packetBytes)
attr source packetDropReasonIsHopLimitReached(packetDropped)
attr title "packet drop: hop limit reached, sum(packetBytes)"
scalar MangMoPhong.U25.ipv4.ip packetDropForwardingDisabled:count 0
attr interpolationmode none
attr recordingmode count
attr source packetDropReasonIsForwardingDisabled(packetDropped)
attr title "packet drop: forwarding disabled, count"
scalar MangMoPhong.U25.ipv4.ip packetDropForwardingDisabled:sum(packetBytes) 0
attr interpolationmode none
attr recordingmode sum(packetBytes)
attr source packetDropReasonIsForwardingDisabled(packetDropped)
attr title "packet drop: forwarding disabled, sum(packetBytes)"
scalar MangMoPhong.U25.ipv4.ip packetDropNoInterfaceFound:count 0
attr interpolationmode none
attr recordingmode count
attr source packetDropReasonIsNoInterfaceFound(packetDropped)
attr title "packet drop: no interface found, count"
scalar MangMoPhong.U25.ipv4.ip packetDropNoInterfaceFound:sum(packetBytes) 0
attr interpolationmode none
attr recordingmode sum(packetBytes)
attr source packetDropReasonIsNoInterfaceFound(packetDropped)
attr title "packet drop: no interface found, sum(packetBytes)"
scalar MangMoPhong.U25.ipv4.ip packetDropNoRouteFound:count 0
attr interpolationmode none
attr recordingmode count
attr source packetDropReasonIsNoRouteFound(packetDropped)
attr title "packet drop: no route found, count"
scalar MangMoPhong.U25.ipv4.ip packetDropNoRouteFound:sum(packetBytes) 0
attr interpolationmode none
attr recordingmode sum(packetBytes)
attr source packetDropReasonIsNoRouteFound(packetDropped)
attr title "packet drop: no route found, sum(packetBytes)"
scalar MangMoPhong.U25.ipv4.ip packetDropUndefined:count 0
attr interpolationmode none
attr recordingmode count
attr source packetDropReasonIsUndefined(packetDropped)
attr title "packet drop: undefined, count"
scalar MangMoPhong.U25.ipv4.ip packetDropUndefined:sum(packetBytes) 0
attr interpolationmode none
attr recordingmode sum(packetBytes)
attr source packetDropReasonIsUndefined(packetDropped)
attr title "packet drop: undefined, sum(packetBytes)"
par MangMoPhong.U25.ipv4.arp typename "\"inet.networklayer.arp.ipv4.Arp\""
par MangMoPhong.U25.ipv4.arp interfaceTableModule "\"MangMoPhong.U25.interfaceTable\""
par MangMoPhong.U25.ipv4.arp routingTableModule "\"MangMoPhong.U25.ipv4.routingTable\""
par MangMoPhong.U25.ipv4.arp retryTimeout 1s
attr unit s
par MangMoPhong.U25.ipv4.arp retryCount 3
par MangMoPhong.U25.ipv4.arp cacheTimeout 120s
attr unit s
par MangMoPhong.U25.ipv4.arp proxyArpInterfaces "\"\""
scalar MangMoPhong.U25.ipv4.arp arpReplySent:count 0
attr recordingmode count
attr source arpReplySent
attr title "ARP replies sent, count"
scalar MangMoPhong.U25.ipv4.arp arpReplySent:sum(packetBytes) 0
attr recordingmode sum(packetBytes)
attr source arpReplySent
attr title "ARP replies sent, sum(packetBytes)"
scalar MangMoPhong.U25.ipv4.arp arpRequestSent:count 0
attr recordingmode count
attr source arpRequestSent
attr title "ARP request sent, count"
scalar MangMoPhong.U25.ipv4.arp arpRequestSent:sum(packetBytes) 0
attr recordingmode sum(packetBytes)
attr source arpRequestSent
attr title "ARP request sent, sum(packetBytes)"
scalar MangMoPhong.U25.ipv4.arp arpResolutionFailed:count 0
attr recordingmode count
attr title "ARP failed resolutions, count"
scalar MangMoPhong.U25.ipv4.arp arpResolutionCompleted:count 0
attr recordingmode count
attr title "ARP completed resolutions, count"
scalar MangMoPhong.U25.ipv4.arp arpResolutionInitiated:count 0
attr recordingmode count
attr title "ARP initiated resolutions, count"
par MangMoPhong.U25.ipv4.lp typename "\"inet.common.MessageDispatcher\""
par MangMoPhong.U25.ipv4.lp displayStringTextFormat "\"processed %p pk (%l)\""
par MangMoPhong.U25.ipv4.lp forwardServiceRegistration true
par MangMoPhong.U25.ipv4.lp forwardProtocolRegistration true
par MangMoPhong.U25.ipv4 typename "\"inet.networklayer.ipv4.Ipv4NetworkLayer\""
par MangMoPhong.U25.ipv4 forwarding true
par MangMoPhong.U25.ipv4 multicastForwarding false
par MangMoPhong.U25.ipv4 interfaceTableModule "\"MangMoPhong.U25.interfaceTable\""
par MangMoPhong.U25.ipv4 displayStringTextFormat "\"%i\""
par MangMoPhong.U25.nl typename "\"inet.common.MessageDispatcher\""
par MangMoPhong.U25.nl displayStringTextFormat "\"processed %p pk (%l)\""
par MangMoPhong.U25.nl forwardServiceRegistration true
par MangMoPhong.U25.nl forwardProtocolRegistration true
par MangMoPhong.U25.udp typename "\"inet.transportlayer.udp.Udp\""
par MangMoPhong.U25.udp interfaceTableModule "\"MangMoPhong.U25.interfaceTable\""
par MangMoPhong.U25.udp icmpModule "\"^.ipv4.icmp\""
par MangMoPhong.U25.udp icmpv6Module "\"^.ipv6.icmpv6\""
par MangMoPhong.U25.udp crcMode "\"declared\""
attr enum disabled,declared,computed
par MangMoPhong.U25.udp defaultMulticastLoop true
scalar MangMoPhong.U25.udp packetReceived:count 0
attr interpolationmode none
attr recordingmode count
attr source packetReceived
attr title "packets received, count"
scalar MangMoPhong.U25.udp packetReceived:sum(packetBytes) 0
attr interpolationmode none
attr recordingmode sum(packetBytes)
attr source packetReceived
attr title "packets received, sum(packetBytes)"
scalar MangMoPhong.U25.udp packetSent:count 0
attr interpolationmode none
attr recordingmode count
attr source packetSent
attr title "packets sent, count"
scalar MangMoPhong.U25.udp packetSent:sum(packetBytes) 0
attr interpolationmode none
attr recordingmode sum(packetBytes)
attr source packetSent
attr title "packets sent, sum(packetBytes)"
scalar MangMoPhong.U25.udp passedUpPk:count 0
attr interpolationmode none
attr recordingmode count
attr source packetSentToUpper
attr title "packets passed up, count"
scalar MangMoPhong.U25.udp droppedPkWrongPort:count 0
attr interpolationmode none
attr recordingmode count
attr source packetDropReasonIsNoPortFound(packetDropped)
attr title "packets dropped (wrong port), count"
scalar MangMoPhong.U25.udp droppedPkBadChecksum:count 0
attr interpolationmode none
attr recordingmode count
attr source packetDropReasonIsIncorrectlyReceived(packetDropped)
attr title "packets dropped (checksum error), count"
par MangMoPhong.U25.tcp typename "\"inet.transportlayer.tcp.Tcp\""
par MangMoPhong.U25.tcp crcMode "\"declared\""
attr enum declared,computed
par MangMoPhong.U25.tcp advertisedWindow 7504
par MangMoPhong.U25.tcp delayedAcksEnabled false
par MangMoPhong.U25.tcp nagleEnabled true
par MangMoPhong.U25.tcp limitedTransmitEnabled false
par MangMoPhong.U25.tcp increasedIWEnabled false
par MangMoPhong.U25.tcp sackSupport false
par MangMoPhong.U25.tcp windowScalingSupport false
par MangMoPhong.U25.tcp windowScalingFactor -1
par MangMoPhong.U25.tcp timestampSupport false
par MangMoPhong.U25.tcp mss 536
par MangMoPhong.U25.tcp msl 120s
attr unit s
par MangMoPhong.U25.tcp tcpAlgorithmClass "\"TcpReno\""
attr enum TcpVegas,TcpWestwood,TcpNewReno,TcpReno,TcpTahoe,TcpNoCongestionControl
par MangMoPhong.U25.tcp useDataNotification false
par MangMoPhong.U25.tcp dupthresh 3
par MangMoPhong.U25.tcp initialSsthresh 4294967295
par MangMoPhong.U25.tcp stopOperationExtraTime 0s
attr unit s
par MangMoPhong.U25.tcp stopOperationTimeout 2s
attr unit s
par MangMoPhong.U25.tcp ecnWillingness false
par MangMoPhong.U25.tcp dctcpGamma 0.0625
par MangMoPhong.U25.tn typename "\"inet.common.MessageDispatcher\""
par MangMoPhong.U25.tn displayStringTextFormat "\"processed %p pk (%l)\""
par MangMoPhong.U25.tn forwardServiceRegistration true
par MangMoPhong.U25.tn forwardProtocolRegistration true
par MangMoPhong.U25.at typename "\"inet.common.MessageDispatcher\""
par MangMoPhong.U25.at displayStringTextFormat "\"processed %p pk (%l)\""
par MangMoPhong.U25.at forwardServiceRegistration true
par MangMoPhong.U25.at forwardProtocolRegistration true
par MangMoPhong.U25.routing typename "\"inet.routing.gpsr.Gpsr\""
par MangMoPhong.U25.routing interfaceTableModule "\"MangMoPhong.U25.interfaceTable\""
par MangMoPhong.U25.routing routingTableModule "\"^.ipv4.routingTable\""
par MangMoPhong.U25.routing networkProtocolModule "\"^.ipv4.ip\""
par MangMoPhong.U25.routing outputInterface "\"wlan0\""
par MangMoPhong.U25.routing planarizationMode "\"GG\""
attr enum ,GG,RNG
par MangMoPhong.U25.routing interfaces "\"*\""
par MangMoPhong.U25.routing beaconInterval 2s
attr unit s
par MangMoPhong.U25.routing maxJitter 1s
attr unit s
par MangMoPhong.U25.routing neighborValidityInterval 9s
attr unit s
par MangMoPhong.U25.routing positionByteLength 8B
attr unit B
par MangMoPhong.U25.routing displayBubbles false
par MangMoPhong.U25 typename "\"inet.node.inet.ManetRouter\""
par MangMoPhong.U25 hasStatus false
par MangMoPhong.U25 osgModel "\"\""
par MangMoPhong.U25 osgModelColor "\"\""
par MangMoPhong.U25 canvasImage "\"\""
par MangMoPhong.U25 canvasImageColor "\"\""
par MangMoPhong.U25 recordPcap false
par MangMoPhong.U25 numPcapRecorders 0
par MangMoPhong.U25 numLoInterfaces 1
par MangMoPhong.U25 numWlanInterfaces 1
par MangMoPhong.U25 numEthInterfaces 0
par MangMoPhong.U25 numPppInterfaces 0
par MangMoPhong.U25 numTunInterfaces 0
par MangMoPhong.U25 numVirtInterfaces 0
par MangMoPhong.U25 fcsMode "\"declared\""
attr enum declared,computed
par MangMoPhong.U25 hasIpv4 true
par MangMoPhong.U25 hasIpv6 false
par MangMoPhong.U25 hasGn false
par MangMoPhong.U25 forwarding true
par MangMoPhong.U25 multicastForwarding false
par MangMoPhong.U25 hasUdp true
par MangMoPhong.U25 hasTcp true
par MangMoPhong.U25 hasSctp false
par MangMoPhong.U25 numApps 0
par MangMoPhong typename "\"KhaoSatGPSR.MangMoPhong\""

