file 100302319 1729060733                                       
version 3
run Gpsr_Moblity_15mps_095Dbm_noise-3-20241016-13:38:28-13276
attr configname Gpsr_Moblity_15mps_095Dbm_noise
attr datetime 20241016-13:38:28
attr datetimef 20241016-133828
attr experiment Gpsr_Moblity_15mps_095Dbm_noise
attr inifile FANETconfig.ini
attr iterationvars ""
attr iterationvarsd ""
attr iterationvarsf ""
attr measurement ""
attr network KhaoSatGPSR.MangMoPhong
attr processid 13276
attr repetition 3
attr replication #3
attr resultdir results
attr runnumber 3
attr seedset 3
config image-path ../../../inet4.4/images
config extends "MassMobility_15mps, Gpsr, Noise_095"
config extends MassMobility_5mps
config *.U*.mobility.speed normal(15mps,0.2mps)
config *.U*.mobility.typename MassMobility
config *.U*.osgModel "\"3d/drone.ive.100.scale.0,0,90.rot\""
config *.U*.mobility.changeInterval 1s
config *.U*.mobility.angleDelta uniform(-10deg,10deg)
config *.U*.mobility.speed normal(5mps,0.2mps)
config *.*.routing.typename Gpsr
config *.*.routing.beaconInterval 2s
config *.radioMedium.backgroundNoise.power "-95 dBm"
config network KhaoSatGPSR.MangMoPhong
config sim-time-limit 310s
config repeat 5
config *.GCS.wlan[*].radio.packetErrorRate:vector.vector-recording true
config *.GCS.wlan[*].radio.minSnir:vector.vector-recording true
config *.GCS.wlan[*].radio.packetErrorRate.result-recording-modes +vector
config *.GCS.wlan[*].radio.minSnir.result-recording-modes +vector
config **.wlan[*].radio.typename Ieee80211ScalarRadio
config **.wlan[*].radio.bandName "\"2.4 GHz\""
config **.opMode "\"g(mixed)\""
config **.wlan[*].bitrate 36Mbps
config **.wlan[*].radio.transmitter.power 8dBm
config *.GCS.wlan[*].radio.displayCommunicationRange true
config *.U1.wlan[*].radio.displayCommunicationRange true
config *.radioMedium.pathLoss.typename FreeSpacePathLoss
config *.visualizer.osgVisualizer.typename IntegratedOsgVisualizer
config *.visualizer.osgVisualizer.sceneVisualizer.clearColor "\"skyblue\""
config *.visualizer.osgVisualizer.sceneVisualizer.sceneImage "\"showcases/desert\""
config *.visualizer.osgVisualizer.sceneVisualizer.sceneImageSize 6000m
config *.visualizer.osgVisualizer.sceneVisualizer.axisLength 6200m
config *.visualizer.osgVisualizer.sceneVisualizer.sceneMinX -1000m
config *.visualizer.osgVisualizer.sceneVisualizer.sceneMinY -1000m
config *.visualizer.osgVisualizer.sceneVisualizer.sceneMinZ 100m
config *.visualizer.osgVisualizer.sceneVisualizer.sceneMaxX 6100m
config *.visualizer.osgVisualizer.sceneVisualizer.sceneMaxY 6100m
config *.visualizer.osgVisualizer.sceneVisualizer.sceneMaxZ 1000m
config *.visualizer.*.networkRouteVisualizer.displayRoutes true
config *.visualizer.*.networkRouteVisualizer[0].packetFilter "\"UDP*\""
config *.visualizer.*.infoVisualizer.modules "\"*.*.app[0]\""
config *.visualizer.*.infoVisualizer.format "\"%t\""
config *.visualizer.*.infoVisualizer.placementHint "\"topCenter\""
config *.radioMedium.backgroundNoise.typename IsotropicScalarBackgroundNoise
config *.radioMedium.backgroundNoise.power "-105 dBm"
config **.wlan[0].radio.receiver.sensitivity -85dBm
config **.wlan[0].radio.receiver.energyDetection -85dBm
config **.wlan[0].radio.receiver.snirThreshold 4dB
config *.U1.numApps 1
config *.U1.app[0].typename UdpBasicApp
config *.U1.app[0].destAddresses "\"GCS\""
config *.U1.app[0].destPort 1000
config *.U1.app[0].sendInterval normal(250ms,10us)
config *.U1.app[0].startTime 10s
config *.U1.app[0].messageLength 1200Byte
config *.U1.app[0].packetName "\"UDPdata\""
config *.GCS.numApps 1
config *.GCS.app[0].typename UdpSink
config *.GCS.app[0].localPort 1000
config *.U*.mobility.constraintAreaMinX 0m
config *.U*.mobility.constraintAreaMinY 0m
config *.U*.mobility.constraintAreaMinZ 10m
config *.U*.mobility.constraintAreaMaxX 1200m
config *.U*.mobility.constraintAreaMaxY 1000m
config *.U*.mobility.constraintAreaMaxZ 50m

vector 0 MangMoPhong.U1.wlan[0].mac.dcf frameSequenceActive:vector ETV
attr autoWarmupFilter false
attr interpolationmode sample-hold
attr recordingmode vector
attr source warmup(count(frameSequenceStarted)-count(frameSequenceFinished))
attr title "frame sequence active"
vector 1 MangMoPhong.U1.wlan[0].mac.dcf.channelAccess.inProgressFrames queueLength:vector ETV
attr autoWarmupFilter false
attr interpolationmode sample-hold
attr recordingmode vector
attr source "warmup(count(packetEnqueued) - count(packetDequeued))"
attr title "queue length"
vector 2 MangMoPhong.U1.wlan[0].mac.dcf.channelAccess.contention backoffActive:vector ETV
attr autoWarmupFilter false
attr interpolationmode sample-hold
attr recordingmode vector
attr source warmup(count(backoffStarted)-count(backoffStopped))
attr title "backoff active"
vector 3 MangMoPhong.U1.udp passedUpPk:vector(count) ETV
attr interpolationmode none
attr recordingmode vector(count)
attr source packetSentToUpper
attr title "packets passed up, count"
vector 4 MangMoPhong.U1.udp droppedPkWrongPort:vector(count) ETV
attr interpolationmode none
attr recordingmode vector(count)
attr source packetDropReasonIsNoPortFound(packetDropped)
attr title "packets dropped (wrong port), count"
vector 5 MangMoPhong.U1.udp droppedPkBadChecksum:vector(count) ETV
attr interpolationmode none
attr recordingmode vector(count)
attr source packetDropReasonIsIncorrectlyReceived(packetDropped)
attr title "packets dropped (checksum error), count"
vector 6 MangMoPhong.GCS.wlan[0].mac.dcf frameSequenceActive:vector ETV
attr autoWarmupFilter false
attr interpolationmode sample-hold
attr recordingmode vector
attr source warmup(count(frameSequenceStarted)-count(frameSequenceFinished))
attr title "frame sequence active"
vector 7 MangMoPhong.GCS.wlan[0].mac.dcf.channelAccess.inProgressFrames queueLength:vector ETV
attr autoWarmupFilter false
attr interpolationmode sample-hold
attr recordingmode vector
attr source "warmup(count(packetEnqueued) - count(packetDequeued))"
attr title "queue length"
vector 8 MangMoPhong.GCS.wlan[0].mac.dcf.channelAccess.contention backoffActive:vector ETV
attr autoWarmupFilter false
attr interpolationmode sample-hold
attr recordingmode vector
attr source warmup(count(backoffStarted)-count(backoffStopped))
attr title "backoff active"
vector 9 MangMoPhong.GCS.udp passedUpPk:vector(count) ETV
attr interpolationmode none
attr recordingmode vector(count)
attr source packetSentToUpper
attr title "packets passed up, count"
vector 10 MangMoPhong.GCS.udp droppedPkWrongPort:vector(count) ETV
attr interpolationmode none
attr recordingmode vector(count)
attr source packetDropReasonIsNoPortFound(packetDropped)
attr title "packets dropped (wrong port), count"
vector 11 MangMoPhong.GCS.udp droppedPkBadChecksum:vector(count) ETV
attr interpolationmode none
attr recordingmode vector(count)
attr source packetDropReasonIsIncorrectlyReceived(packetDropped)
attr title "packets dropped (checksum error), count"
vector 12 MangMoPhong.U2.wlan[0].mac.dcf frameSequenceActive:vector ETV
attr autoWarmupFilter false
attr interpolationmode sample-hold
attr recordingmode vector
attr source warmup(count(frameSequenceStarted)-count(frameSequenceFinished))
attr title "frame sequence active"
vector 13 MangMoPhong.U2.wlan[0].mac.dcf.channelAccess.inProgressFrames queueLength:vector ETV
attr autoWarmupFilter false
attr interpolationmode sample-hold
attr recordingmode vector
attr source "warmup(count(packetEnqueued) - count(packetDequeued))"
attr title "queue length"
vector 14 MangMoPhong.U2.wlan[0].mac.dcf.channelAccess.contention backoffActive:vector ETV
attr autoWarmupFilter false
attr interpolationmode sample-hold
attr recordingmode vector
attr source warmup(count(backoffStarted)-count(backoffStopped))
attr title "backoff active"
vector 15 MangMoPhong.U2.udp passedUpPk:vector(count) ETV
attr interpolationmode none
attr recordingmode vector(count)
attr source packetSentToUpper
attr title "packets passed up, count"
vector 16 MangMoPhong.U2.udp droppedPkWrongPort:vector(count) ETV
attr interpolationmode none
attr recordingmode vector(count)
attr source packetDropReasonIsNoPortFound(packetDropped)
attr title "packets dropped (wrong port), count"
vector 17 MangMoPhong.U2.udp droppedPkBadChecksum:vector(count) ETV
attr interpolationmode none
attr recordingmode vector(count)
attr source packetDropReasonIsIncorrectlyReceived(packetDropped)
attr title "packets dropped (checksum error), count"
vector 18 MangMoPhong.U3.wlan[0].mac.dcf frameSequenceActive:vector ETV
attr autoWarmupFilter false
attr interpolationmode sample-hold
attr recordingmode vector
attr source warmup(count(frameSequenceStarted)-count(frameSequenceFinished))
attr title "frame sequence active"
vector 19 MangMoPhong.U3.wlan[0].mac.dcf.channelAccess.inProgressFrames queueLength:vector ETV
attr autoWarmupFilter false
attr interpolationmode sample-hold
attr recordingmode vector
attr source "warmup(count(packetEnqueued) - count(packetDequeued))"
attr title "queue length"
vector 20 MangMoPhong.U3.wlan[0].mac.dcf.channelAccess.contention backoffActive:vector ETV
attr autoWarmupFilter false
attr interpolationmode sample-hold
attr recordingmode vector
attr source warmup(count(backoffStarted)-count(backoffStopped))
attr title "backoff active"
vector 21 MangMoPhong.U3.udp passedUpPk:vector(count) ETV
attr interpolationmode none
attr recordingmode vector(count)
attr source packetSentToUpper
attr title "packets passed up, count"
vector 22 MangMoPhong.U3.udp droppedPkWrongPort:vector(count) ETV
attr interpolationmode none
attr recordingmode vector(count)
attr source packetDropReasonIsNoPortFound(packetDropped)
attr title "packets dropped (wrong port), count"
vector 23 MangMoPhong.U3.udp droppedPkBadChecksum:vector(count) ETV
attr interpolationmode none
attr recordingmode vector(count)
attr source packetDropReasonIsIncorrectlyReceived(packetDropped)
attr title "packets dropped (checksum error), count"
vector 24 MangMoPhong.U4.wlan[0].mac.dcf frameSequenceActive:vector ETV
attr autoWarmupFilter false
attr interpolationmode sample-hold
attr recordingmode vector
attr source warmup(count(frameSequenceStarted)-count(frameSequenceFinished))
attr title "frame sequence active"
vector 25 MangMoPhong.U4.wlan[0].mac.dcf.channelAccess.inProgressFrames queueLength:vector ETV
attr autoWarmupFilter false
attr interpolationmode sample-hold
attr recordingmode vector
attr source "warmup(count(packetEnqueued) - count(packetDequeued))"
attr title "queue length"
vector 26 MangMoPhong.U4.wlan[0].mac.dcf.channelAccess.contention backoffActive:vector ETV
attr autoWarmupFilter false
attr interpolationmode sample-hold
attr recordingmode vector
attr source warmup(count(backoffStarted)-count(backoffStopped))
attr title "backoff active"
vector 27 MangMoPhong.U4.udp passedUpPk:vector(count) ETV
attr interpolationmode none
attr recordingmode vector(count)
attr source packetSentToUpper
attr title "packets passed up, count"
vector 28 MangMoPhong.U4.udp droppedPkWrongPort:vector(count) ETV
attr interpolationmode none
attr recordingmode vector(count)
attr source packetDropReasonIsNoPortFound(packetDropped)
attr title "packets dropped (wrong port), count"
vector 29 MangMoPhong.U4.udp droppedPkBadChecksum:vector(count) ETV
attr interpolationmode none
attr recordingmode vector(count)
attr source packetDropReasonIsIncorrectlyReceived(packetDropped)
attr title "packets dropped (checksum error), count"
vector 30 MangMoPhong.U5.wlan[0].mac.dcf frameSequenceActive:vector ETV
attr autoWarmupFilter false
attr interpolationmode sample-hold
attr recordingmode vector
attr source warmup(count(frameSequenceStarted)-count(frameSequenceFinished))
attr title "frame sequence active"
vector 31 MangMoPhong.U5.wlan[0].mac.dcf.channelAccess.inProgressFrames queueLength:vector ETV
attr autoWarmupFilter false
attr interpolationmode sample-hold
attr recordingmode vector
attr source "warmup(count(packetEnqueued) - count(packetDequeued))"
attr title "queue length"
vector 32 MangMoPhong.U5.wlan[0].mac.dcf.channelAccess.contention backoffActive:vector ETV
attr autoWarmupFilter false
attr interpolationmode sample-hold
attr recordingmode vector
attr source warmup(count(backoffStarted)-count(backoffStopped))
attr title "backoff active"
vector 33 MangMoPhong.U5.udp passedUpPk:vector(count) ETV
attr interpolationmode none
attr recordingmode vector(count)
attr source packetSentToUpper
attr title "packets passed up, count"
vector 34 MangMoPhong.U5.udp droppedPkWrongPort:vector(count) ETV
attr interpolationmode none
attr recordingmode vector(count)
attr source packetDropReasonIsNoPortFound(packetDropped)
attr title "packets dropped (wrong port), count"
vector 35 MangMoPhong.U5.udp droppedPkBadChecksum:vector(count) ETV
attr interpolationmode none
attr recordingmode vector(count)
attr source packetDropReasonIsIncorrectlyReceived(packetDropped)
attr title "packets dropped (checksum error), count"
vector 36 MangMoPhong.U6.wlan[0].mac.dcf frameSequenceActive:vector ETV
attr autoWarmupFilter false
attr interpolationmode sample-hold
attr recordingmode vector
attr source warmup(count(frameSequenceStarted)-count(frameSequenceFinished))
attr title "frame sequence active"
vector 37 MangMoPhong.U6.wlan[0].mac.dcf.channelAccess.inProgressFrames queueLength:vector ETV
attr autoWarmupFilter false
attr interpolationmode sample-hold
attr recordingmode vector
attr source "warmup(count(packetEnqueued) - count(packetDequeued))"
attr title "queue length"
vector 38 MangMoPhong.U6.wlan[0].mac.dcf.channelAccess.contention backoffActive:vector ETV
attr autoWarmupFilter false
attr interpolationmode sample-hold
attr recordingmode vector
attr source warmup(count(backoffStarted)-count(backoffStopped))
attr title "backoff active"
vector 39 MangMoPhong.U6.udp passedUpPk:vector(count) ETV
attr interpolationmode none
attr recordingmode vector(count)
attr source packetSentToUpper
attr title "packets passed up, count"
vector 40 MangMoPhong.U6.udp droppedPkWrongPort:vector(count) ETV
attr interpolationmode none
attr recordingmode vector(count)
attr source packetDropReasonIsNoPortFound(packetDropped)
attr title "packets dropped (wrong port), count"
vector 41 MangMoPhong.U6.udp droppedPkBadChecksum:vector(count) ETV
attr interpolationmode none
attr recordingmode vector(count)
attr source packetDropReasonIsIncorrectlyReceived(packetDropped)
attr title "packets dropped (checksum error), count"
vector 42 MangMoPhong.U7.wlan[0].mac.dcf frameSequenceActive:vector ETV
attr autoWarmupFilter false
attr interpolationmode sample-hold
attr recordingmode vector
attr source warmup(count(frameSequenceStarted)-count(frameSequenceFinished))
attr title "frame sequence active"
vector 43 MangMoPhong.U7.wlan[0].mac.dcf.channelAccess.inProgressFrames queueLength:vector ETV
attr autoWarmupFilter false
attr interpolationmode sample-hold
attr recordingmode vector
attr source "warmup(count(packetEnqueued) - count(packetDequeued))"
attr title "queue length"
vector 44 MangMoPhong.U7.wlan[0].mac.dcf.channelAccess.contention backoffActive:vector ETV
attr autoWarmupFilter false
attr interpolationmode sample-hold
attr recordingmode vector
attr source warmup(count(backoffStarted)-count(backoffStopped))
attr title "backoff active"
vector 45 MangMoPhong.U7.udp passedUpPk:vector(count) ETV
attr interpolationmode none
attr recordingmode vector(count)
attr source packetSentToUpper
attr title "packets passed up, count"
vector 46 MangMoPhong.U7.udp droppedPkWrongPort:vector(count) ETV
attr interpolationmode none
attr recordingmode vector(count)
attr source packetDropReasonIsNoPortFound(packetDropped)
attr title "packets dropped (wrong port), count"
vector 47 MangMoPhong.U7.udp droppedPkBadChecksum:vector(count) ETV
attr interpolationmode none
attr recordingmode vector(count)
attr source packetDropReasonIsIncorrectlyReceived(packetDropped)
attr title "packets dropped (checksum error), count"
vector 48 MangMoPhong.U8.wlan[0].mac.dcf frameSequenceActive:vector ETV
attr autoWarmupFilter false
attr interpolationmode sample-hold
attr recordingmode vector
attr source warmup(count(frameSequenceStarted)-count(frameSequenceFinished))
attr title "frame sequence active"
vector 49 MangMoPhong.U8.wlan[0].mac.dcf.channelAccess.inProgressFrames queueLength:vector ETV
attr autoWarmupFilter false
attr interpolationmode sample-hold
attr recordingmode vector
attr source "warmup(count(packetEnqueued) - count(packetDequeued))"
attr title "queue length"
vector 50 MangMoPhong.U8.wlan[0].mac.dcf.channelAccess.contention backoffActive:vector ETV
attr autoWarmupFilter false
attr interpolationmode sample-hold
attr recordingmode vector
attr source warmup(count(backoffStarted)-count(backoffStopped))
attr title "backoff active"
vector 51 MangMoPhong.U8.udp passedUpPk:vector(count) ETV
attr interpolationmode none
attr recordingmode vector(count)
attr source packetSentToUpper
attr title "packets passed up, count"
vector 52 MangMoPhong.U8.udp droppedPkWrongPort:vector(count) ETV
attr interpolationmode none
attr recordingmode vector(count)
attr source packetDropReasonIsNoPortFound(packetDropped)
attr title "packets dropped (wrong port), count"
vector 53 MangMoPhong.U8.udp droppedPkBadChecksum:vector(count) ETV
attr interpolationmode none
attr recordingmode vector(count)
attr source packetDropReasonIsIncorrectlyReceived(packetDropped)
attr title "packets dropped (checksum error), count"
vector 54 MangMoPhong.U9.wlan[0].mac.dcf frameSequenceActive:vector ETV
attr autoWarmupFilter false
attr interpolationmode sample-hold
attr recordingmode vector
attr source warmup(count(frameSequenceStarted)-count(frameSequenceFinished))
attr title "frame sequence active"
vector 55 MangMoPhong.U9.wlan[0].mac.dcf.channelAccess.inProgressFrames queueLength:vector ETV
attr autoWarmupFilter false
attr interpolationmode sample-hold
attr recordingmode vector
attr source "warmup(count(packetEnqueued) - count(packetDequeued))"
attr title "queue length"
vector 56 MangMoPhong.U9.wlan[0].mac.dcf.channelAccess.contention backoffActive:vector ETV
attr autoWarmupFilter false
attr interpolationmode sample-hold
attr recordingmode vector
attr source warmup(count(backoffStarted)-count(backoffStopped))
attr title "backoff active"
vector 57 MangMoPhong.U9.udp passedUpPk:vector(count) ETV
attr interpolationmode none
attr recordingmode vector(count)
attr source packetSentToUpper
attr title "packets passed up, count"
vector 58 MangMoPhong.U9.udp droppedPkWrongPort:vector(count) ETV
attr interpolationmode none
attr recordingmode vector(count)
attr source packetDropReasonIsNoPortFound(packetDropped)
attr title "packets dropped (wrong port), count"
vector 59 MangMoPhong.U9.udp droppedPkBadChecksum:vector(count) ETV
attr interpolationmode none
attr recordingmode vector(count)
attr source packetDropReasonIsIncorrectlyReceived(packetDropped)
attr title "packets dropped (checksum error), count"
vector 60 MangMoPhong.U10.wlan[0].mac.dcf frameSequenceActive:vector ETV
attr autoWarmupFilter false
attr interpolationmode sample-hold
attr recordingmode vector
attr source warmup(count(frameSequenceStarted)-count(frameSequenceFinished))
attr title "frame sequence active"
vector 61 MangMoPhong.U10.wlan[0].mac.dcf.channelAccess.inProgressFrames queueLength:vector ETV
attr autoWarmupFilter false
attr interpolationmode sample-hold
attr recordingmode vector
attr source "warmup(count(packetEnqueued) - count(packetDequeued))"
attr title "queue length"
vector 62 MangMoPhong.U10.wlan[0].mac.dcf.channelAccess.contention backoffActive:vector ETV
attr autoWarmupFilter false
attr interpolationmode sample-hold
attr recordingmode vector
attr source warmup(count(backoffStarted)-count(backoffStopped))
attr title "backoff active"
vector 63 MangMoPhong.U10.udp passedUpPk:vector(count) ETV
attr interpolationmode none
attr recordingmode vector(count)
attr source packetSentToUpper
attr title "packets passed up, count"
vector 64 MangMoPhong.U10.udp droppedPkWrongPort:vector(count) ETV
attr interpolationmode none
attr recordingmode vector(count)
attr source packetDropReasonIsNoPortFound(packetDropped)
attr title "packets dropped (wrong port), count"
vector 65 MangMoPhong.U10.udp droppedPkBadChecksum:vector(count) ETV
attr interpolationmode none
attr recordingmode vector(count)
attr source packetDropReasonIsIncorrectlyReceived(packetDropped)
attr title "packets dropped (checksum error), count"
vector 66 MangMoPhong.U11.wlan[0].mac.dcf frameSequenceActive:vector ETV
attr autoWarmupFilter false
attr interpolationmode sample-hold
attr recordingmode vector
attr source warmup(count(frameSequenceStarted)-count(frameSequenceFinished))
attr title "frame sequence active"
vector 67 MangMoPhong.U11.wlan[0].mac.dcf.channelAccess.inProgressFrames queueLength:vector ETV
attr autoWarmupFilter false
attr interpolationmode sample-hold
attr recordingmode vector
attr source "warmup(count(packetEnqueued) - count(packetDequeued))"
attr title "queue length"
vector 68 MangMoPhong.U11.wlan[0].mac.dcf.channelAccess.contention backoffActive:vector ETV
attr autoWarmupFilter false
attr interpolationmode sample-hold
attr recordingmode vector
attr source warmup(count(backoffStarted)-count(backoffStopped))
attr title "backoff active"
vector 69 MangMoPhong.U11.udp passedUpPk:vector(count) ETV
attr interpolationmode none
attr recordingmode vector(count)
attr source packetSentToUpper
attr title "packets passed up, count"
vector 70 MangMoPhong.U11.udp droppedPkWrongPort:vector(count) ETV
attr interpolationmode none
attr recordingmode vector(count)
attr source packetDropReasonIsNoPortFound(packetDropped)
attr title "packets dropped (wrong port), count"
vector 71 MangMoPhong.U11.udp droppedPkBadChecksum:vector(count) ETV
attr interpolationmode none
attr recordingmode vector(count)
attr source packetDropReasonIsIncorrectlyReceived(packetDropped)
attr title "packets dropped (checksum error), count"
vector 72 MangMoPhong.U12.wlan[0].mac.dcf frameSequenceActive:vector ETV
attr autoWarmupFilter false
attr interpolationmode sample-hold
attr recordingmode vector
attr source warmup(count(frameSequenceStarted)-count(frameSequenceFinished))
attr title "frame sequence active"
vector 73 MangMoPhong.U12.wlan[0].mac.dcf.channelAccess.inProgressFrames queueLength:vector ETV
attr autoWarmupFilter false
attr interpolationmode sample-hold
attr recordingmode vector
attr source "warmup(count(packetEnqueued) - count(packetDequeued))"
attr title "queue length"
vector 74 MangMoPhong.U12.wlan[0].mac.dcf.channelAccess.contention backoffActive:vector ETV
attr autoWarmupFilter false
attr interpolationmode sample-hold
attr recordingmode vector
attr source warmup(count(backoffStarted)-count(backoffStopped))
attr title "backoff active"
vector 75 MangMoPhong.U12.udp passedUpPk:vector(count) ETV
attr interpolationmode none
attr recordingmode vector(count)
attr source packetSentToUpper
attr title "packets passed up, count"
vector 76 MangMoPhong.U12.udp droppedPkWrongPort:vector(count) ETV
attr interpolationmode none
attr recordingmode vector(count)
attr source packetDropReasonIsNoPortFound(packetDropped)
attr title "packets dropped (wrong port), count"
vector 77 MangMoPhong.U12.udp droppedPkBadChecksum:vector(count) ETV
attr interpolationmode none
attr recordingmode vector(count)
attr source packetDropReasonIsIncorrectlyReceived(packetDropped)
attr title "packets dropped (checksum error), count"
vector 78 MangMoPhong.U13.wlan[0].mac.dcf frameSequenceActive:vector ETV
attr autoWarmupFilter false
attr interpolationmode sample-hold
attr recordingmode vector
attr source warmup(count(frameSequenceStarted)-count(frameSequenceFinished))
attr title "frame sequence active"
vector 79 MangMoPhong.U13.wlan[0].mac.dcf.channelAccess.inProgressFrames queueLength:vector ETV
attr autoWarmupFilter false
attr interpolationmode sample-hold
attr recordingmode vector
attr source "warmup(count(packetEnqueued) - count(packetDequeued))"
attr title "queue length"
vector 80 MangMoPhong.U13.wlan[0].mac.dcf.channelAccess.contention backoffActive:vector ETV
attr autoWarmupFilter false
attr interpolationmode sample-hold
attr recordingmode vector
attr source warmup(count(backoffStarted)-count(backoffStopped))
attr title "backoff active"
vector 81 MangMoPhong.U13.udp passedUpPk:vector(count) ETV
attr interpolationmode none
attr recordingmode vector(count)
attr source packetSentToUpper
attr title "packets passed up, count"
vector 82 MangMoPhong.U13.udp droppedPkWrongPort:vector(count) ETV
attr interpolationmode none
attr recordingmode vector(count)
attr source packetDropReasonIsNoPortFound(packetDropped)
attr title "packets dropped (wrong port), count"
vector 83 MangMoPhong.U13.udp droppedPkBadChecksum:vector(count) ETV
attr interpolationmode none
attr recordingmode vector(count)
attr source packetDropReasonIsIncorrectlyReceived(packetDropped)
attr title "packets dropped (checksum error), count"
vector 84 MangMoPhong.U14.wlan[0].mac.dcf frameSequenceActive:vector ETV
attr autoWarmupFilter false
attr interpolationmode sample-hold
attr recordingmode vector
attr source warmup(count(frameSequenceStarted)-count(frameSequenceFinished))
attr title "frame sequence active"
vector 85 MangMoPhong.U14.wlan[0].mac.dcf.channelAccess.inProgressFrames queueLength:vector ETV
attr autoWarmupFilter false
attr interpolationmode sample-hold
attr recordingmode vector
attr source "warmup(count(packetEnqueued) - count(packetDequeued))"
attr title "queue length"
vector 86 MangMoPhong.U14.wlan[0].mac.dcf.channelAccess.contention backoffActive:vector ETV
attr autoWarmupFilter false
attr interpolationmode sample-hold
attr recordingmode vector
attr source warmup(count(backoffStarted)-count(backoffStopped))
attr title "backoff active"
vector 87 MangMoPhong.U14.udp passedUpPk:vector(count) ETV
attr interpolationmode none
attr recordingmode vector(count)
attr source packetSentToUpper
attr title "packets passed up, count"
vector 88 MangMoPhong.U14.udp droppedPkWrongPort:vector(count) ETV
attr interpolationmode none
attr recordingmode vector(count)
attr source packetDropReasonIsNoPortFound(packetDropped)
attr title "packets dropped (wrong port), count"
vector 89 MangMoPhong.U14.udp droppedPkBadChecksum:vector(count) ETV
attr interpolationmode none
attr recordingmode vector(count)
attr source packetDropReasonIsIncorrectlyReceived(packetDropped)
attr title "packets dropped (checksum error), count"
vector 90 MangMoPhong.U15.wlan[0].mac.dcf frameSequenceActive:vector ETV
attr autoWarmupFilter false
attr interpolationmode sample-hold
attr recordingmode vector
attr source warmup(count(frameSequenceStarted)-count(frameSequenceFinished))
attr title "frame sequence active"
vector 91 MangMoPhong.U15.wlan[0].mac.dcf.channelAccess.inProgressFrames queueLength:vector ETV
attr autoWarmupFilter false
attr interpolationmode sample-hold
attr recordingmode vector
attr source "warmup(count(packetEnqueued) - count(packetDequeued))"
attr title "queue length"
vector 92 MangMoPhong.U15.wlan[0].mac.dcf.channelAccess.contention backoffActive:vector ETV
attr autoWarmupFilter false
attr interpolationmode sample-hold
attr recordingmode vector
attr source warmup(count(backoffStarted)-count(backoffStopped))
attr title "backoff active"
vector 93 MangMoPhong.U15.udp passedUpPk:vector(count) ETV
attr interpolationmode none
attr recordingmode vector(count)
attr source packetSentToUpper
attr title "packets passed up, count"
vector 94 MangMoPhong.U15.udp droppedPkWrongPort:vector(count) ETV
attr interpolationmode none
attr recordingmode vector(count)
attr source packetDropReasonIsNoPortFound(packetDropped)
attr title "packets dropped (wrong port), count"
vector 95 MangMoPhong.U15.udp droppedPkBadChecksum:vector(count) ETV
attr interpolationmode none
attr recordingmode vector(count)
attr source packetDropReasonIsIncorrectlyReceived(packetDropped)
attr title "packets dropped (checksum error), count"
vector 96 MangMoPhong.U16.wlan[0].mac.dcf frameSequenceActive:vector ETV
attr autoWarmupFilter false
attr interpolationmode sample-hold
attr recordingmode vector
attr source warmup(count(frameSequenceStarted)-count(frameSequenceFinished))
attr title "frame sequence active"
vector 97 MangMoPhong.U16.wlan[0].mac.dcf.channelAccess.inProgressFrames queueLength:vector ETV
attr autoWarmupFilter false
attr interpolationmode sample-hold
attr recordingmode vector
attr source "warmup(count(packetEnqueued) - count(packetDequeued))"
attr title "queue length"
vector 98 MangMoPhong.U16.wlan[0].mac.dcf.channelAccess.contention backoffActive:vector ETV
attr autoWarmupFilter false
attr interpolationmode sample-hold
attr recordingmode vector
attr source warmup(count(backoffStarted)-count(backoffStopped))
attr title "backoff active"
vector 99 MangMoPhong.U16.udp passedUpPk:vector(count) ETV
attr interpolationmode none
attr recordingmode vector(count)
attr source packetSentToUpper
attr title "packets passed up, count"
vector 100 MangMoPhong.U16.udp droppedPkWrongPort:vector(count) ETV
attr interpolationmode none
attr recordingmode vector(count)
attr source packetDropReasonIsNoPortFound(packetDropped)
attr title "packets dropped (wrong port), count"
vector 101 MangMoPhong.U16.udp droppedPkBadChecksum:vector(count) ETV
attr interpolationmode none
attr recordingmode vector(count)
attr source packetDropReasonIsIncorrectlyReceived(packetDropped)
attr title "packets dropped (checksum error), count"
vector 102 MangMoPhong.U17.wlan[0].mac.dcf frameSequenceActive:vector ETV
attr autoWarmupFilter false
attr interpolationmode sample-hold
attr recordingmode vector
attr source warmup(count(frameSequenceStarted)-count(frameSequenceFinished))
attr title "frame sequence active"
vector 103 MangMoPhong.U17.wlan[0].mac.dcf.channelAccess.inProgressFrames queueLength:vector ETV
attr autoWarmupFilter false
attr interpolationmode sample-hold
attr recordingmode vector
attr source "warmup(count(packetEnqueued) - count(packetDequeued))"
attr title "queue length"
vector 104 MangMoPhong.U17.wlan[0].mac.dcf.channelAccess.contention backoffActive:vector ETV
attr autoWarmupFilter false
attr interpolationmode sample-hold
attr recordingmode vector
attr source warmup(count(backoffStarted)-count(backoffStopped))
attr title "backoff active"
vector 105 MangMoPhong.U17.udp passedUpPk:vector(count) ETV
attr interpolationmode none
attr recordingmode vector(count)
attr source packetSentToUpper
attr title "packets passed up, count"
vector 106 MangMoPhong.U17.udp droppedPkWrongPort:vector(count) ETV
attr interpolationmode none
attr recordingmode vector(count)
attr source packetDropReasonIsNoPortFound(packetDropped)
attr title "packets dropped (wrong port), count"
vector 107 MangMoPhong.U17.udp droppedPkBadChecksum:vector(count) ETV
attr interpolationmode none
attr recordingmode vector(count)
attr source packetDropReasonIsIncorrectlyReceived(packetDropped)
attr title "packets dropped (checksum error), count"
vector 108 MangMoPhong.U18.wlan[0].mac.dcf frameSequenceActive:vector ETV
attr autoWarmupFilter false
attr interpolationmode sample-hold
attr recordingmode vector
attr source warmup(count(frameSequenceStarted)-count(frameSequenceFinished))
attr title "frame sequence active"
vector 109 MangMoPhong.U18.wlan[0].mac.dcf.channelAccess.inProgressFrames queueLength:vector ETV
attr autoWarmupFilter false
attr interpolationmode sample-hold
attr recordingmode vector
attr source "warmup(count(packetEnqueued) - count(packetDequeued))"
attr title "queue length"
vector 110 MangMoPhong.U18.wlan[0].mac.dcf.channelAccess.contention backoffActive:vector ETV
attr autoWarmupFilter false
attr interpolationmode sample-hold
attr recordingmode vector
attr source warmup(count(backoffStarted)-count(backoffStopped))
attr title "backoff active"
vector 111 MangMoPhong.U18.udp passedUpPk:vector(count) ETV
attr interpolationmode none
attr recordingmode vector(count)
attr source packetSentToUpper
attr title "packets passed up, count"
vector 112 MangMoPhong.U18.udp droppedPkWrongPort:vector(count) ETV
attr interpolationmode none
attr recordingmode vector(count)
attr source packetDropReasonIsNoPortFound(packetDropped)
attr title "packets dropped (wrong port), count"
vector 113 MangMoPhong.U18.udp droppedPkBadChecksum:vector(count) ETV
attr interpolationmode none
attr recordingmode vector(count)
attr source packetDropReasonIsIncorrectlyReceived(packetDropped)
attr title "packets dropped (checksum error), count"
vector 114 MangMoPhong.U19.wlan[0].mac.dcf frameSequenceActive:vector ETV
attr autoWarmupFilter false
attr interpolationmode sample-hold
attr recordingmode vector
attr source warmup(count(frameSequenceStarted)-count(frameSequenceFinished))
attr title "frame sequence active"
vector 115 MangMoPhong.U19.wlan[0].mac.dcf.channelAccess.inProgressFrames queueLength:vector ETV
attr autoWarmupFilter false
attr interpolationmode sample-hold
attr recordingmode vector
attr source "warmup(count(packetEnqueued) - count(packetDequeued))"
attr title "queue length"
vector 116 MangMoPhong.U19.wlan[0].mac.dcf.channelAccess.contention backoffActive:vector ETV
attr autoWarmupFilter false
attr interpolationmode sample-hold
attr recordingmode vector
attr source warmup(count(backoffStarted)-count(backoffStopped))
attr title "backoff active"
vector 117 MangMoPhong.U19.udp passedUpPk:vector(count) ETV
attr interpolationmode none
attr recordingmode vector(count)
attr source packetSentToUpper
attr title "packets passed up, count"
vector 118 MangMoPhong.U19.udp droppedPkWrongPort:vector(count) ETV
attr interpolationmode none
attr recordingmode vector(count)
attr source packetDropReasonIsNoPortFound(packetDropped)
attr title "packets dropped (wrong port), count"
vector 119 MangMoPhong.U19.udp droppedPkBadChecksum:vector(count) ETV
attr interpolationmode none
attr recordingmode vector(count)
attr source packetDropReasonIsIncorrectlyReceived(packetDropped)
attr title "packets dropped (checksum error), count"
vector 120 MangMoPhong.U20.wlan[0].mac.dcf frameSequenceActive:vector ETV
attr autoWarmupFilter false
attr interpolationmode sample-hold
attr recordingmode vector
attr source warmup(count(frameSequenceStarted)-count(frameSequenceFinished))
attr title "frame sequence active"
vector 121 MangMoPhong.U20.wlan[0].mac.dcf.channelAccess.inProgressFrames queueLength:vector ETV
attr autoWarmupFilter false
attr interpolationmode sample-hold
attr recordingmode vector
attr source "warmup(count(packetEnqueued) - count(packetDequeued))"
attr title "queue length"
vector 122 MangMoPhong.U20.wlan[0].mac.dcf.channelAccess.contention backoffActive:vector ETV
attr autoWarmupFilter false
attr interpolationmode sample-hold
attr recordingmode vector
attr source warmup(count(backoffStarted)-count(backoffStopped))
attr title "backoff active"
vector 123 MangMoPhong.U20.udp passedUpPk:vector(count) ETV
attr interpolationmode none
attr recordingmode vector(count)
attr source packetSentToUpper
attr title "packets passed up, count"
vector 124 MangMoPhong.U20.udp droppedPkWrongPort:vector(count) ETV
attr interpolationmode none
attr recordingmode vector(count)
attr source packetDropReasonIsNoPortFound(packetDropped)
attr title "packets dropped (wrong port), count"
vector 125 MangMoPhong.U20.udp droppedPkBadChecksum:vector(count) ETV
attr interpolationmode none
attr recordingmode vector(count)
attr source packetDropReasonIsIncorrectlyReceived(packetDropped)
attr title "packets dropped (checksum error), count"
vector 126 MangMoPhong.U21.wlan[0].mac.dcf frameSequenceActive:vector ETV
attr autoWarmupFilter false
attr interpolationmode sample-hold
attr recordingmode vector
attr source warmup(count(frameSequenceStarted)-count(frameSequenceFinished))
attr title "frame sequence active"
vector 127 MangMoPhong.U21.wlan[0].mac.dcf.channelAccess.inProgressFrames queueLength:vector ETV
attr autoWarmupFilter false
attr interpolationmode sample-hold
attr recordingmode vector
attr source "warmup(count(packetEnqueued) - count(packetDequeued))"
attr title "queue length"
vector 128 MangMoPhong.U21.wlan[0].mac.dcf.channelAccess.contention backoffActive:vector ETV
attr autoWarmupFilter false
attr interpolationmode sample-hold
attr recordingmode vector
attr source warmup(count(backoffStarted)-count(backoffStopped))
attr title "backoff active"
vector 129 MangMoPhong.U21.udp passedUpPk:vector(count) ETV
attr interpolationmode none
attr recordingmode vector(count)
attr source packetSentToUpper
attr title "packets passed up, count"
vector 130 MangMoPhong.U21.udp droppedPkWrongPort:vector(count) ETV
attr interpolationmode none
attr recordingmode vector(count)
attr source packetDropReasonIsNoPortFound(packetDropped)
attr title "packets dropped (wrong port), count"
vector 131 MangMoPhong.U21.udp droppedPkBadChecksum:vector(count) ETV
attr interpolationmode none
attr recordingmode vector(count)
attr source packetDropReasonIsIncorrectlyReceived(packetDropped)
attr title "packets dropped (checksum error), count"
vector 132 MangMoPhong.U22.wlan[0].mac.dcf frameSequenceActive:vector ETV
attr autoWarmupFilter false
attr interpolationmode sample-hold
attr recordingmode vector
attr source warmup(count(frameSequenceStarted)-count(frameSequenceFinished))
attr title "frame sequence active"
vector 133 MangMoPhong.U22.wlan[0].mac.dcf.channelAccess.inProgressFrames queueLength:vector ETV
attr autoWarmupFilter false
attr interpolationmode sample-hold
attr recordingmode vector
attr source "warmup(count(packetEnqueued) - count(packetDequeued))"
attr title "queue length"
vector 134 MangMoPhong.U22.wlan[0].mac.dcf.channelAccess.contention backoffActive:vector ETV
attr autoWarmupFilter false
attr interpolationmode sample-hold
attr recordingmode vector
attr source warmup(count(backoffStarted)-count(backoffStopped))
attr title "backoff active"
vector 135 MangMoPhong.U22.udp passedUpPk:vector(count) ETV
attr interpolationmode none
attr recordingmode vector(count)
attr source packetSentToUpper
attr title "packets passed up, count"
vector 136 MangMoPhong.U22.udp droppedPkWrongPort:vector(count) ETV
attr interpolationmode none
attr recordingmode vector(count)
attr source packetDropReasonIsNoPortFound(packetDropped)
attr title "packets dropped (wrong port), count"
vector 137 MangMoPhong.U22.udp droppedPkBadChecksum:vector(count) ETV
attr interpolationmode none
attr recordingmode vector(count)
attr source packetDropReasonIsIncorrectlyReceived(packetDropped)
attr title "packets dropped (checksum error), count"
vector 138 MangMoPhong.U23.wlan[0].mac.dcf frameSequenceActive:vector ETV
attr autoWarmupFilter false
attr interpolationmode sample-hold
attr recordingmode vector
attr source warmup(count(frameSequenceStarted)-count(frameSequenceFinished))
attr title "frame sequence active"
vector 139 MangMoPhong.U23.wlan[0].mac.dcf.channelAccess.inProgressFrames queueLength:vector ETV
attr autoWarmupFilter false
attr interpolationmode sample-hold
attr recordingmode vector
attr source "warmup(count(packetEnqueued) - count(packetDequeued))"
attr title "queue length"
vector 140 MangMoPhong.U23.wlan[0].mac.dcf.channelAccess.contention backoffActive:vector ETV
attr autoWarmupFilter false
attr interpolationmode sample-hold
attr recordingmode vector
attr source warmup(count(backoffStarted)-count(backoffStopped))
attr title "backoff active"
vector 141 MangMoPhong.U23.udp passedUpPk:vector(count) ETV
attr interpolationmode none
attr recordingmode vector(count)
attr source packetSentToUpper
attr title "packets passed up, count"
vector 142 MangMoPhong.U23.udp droppedPkWrongPort:vector(count) ETV
attr interpolationmode none
attr recordingmode vector(count)
attr source packetDropReasonIsNoPortFound(packetDropped)
attr title "packets dropped (wrong port), count"
vector 143 MangMoPhong.U23.udp droppedPkBadChecksum:vector(count) ETV
attr interpolationmode none
attr recordingmode vector(count)
attr source packetDropReasonIsIncorrectlyReceived(packetDropped)
attr title "packets dropped (checksum error), count"
vector 144 MangMoPhong.U24.wlan[0].mac.dcf frameSequenceActive:vector ETV
attr autoWarmupFilter false
attr interpolationmode sample-hold
attr recordingmode vector
attr source warmup(count(frameSequenceStarted)-count(frameSequenceFinished))
attr title "frame sequence active"
vector 145 MangMoPhong.U24.wlan[0].mac.dcf.channelAccess.inProgressFrames queueLength:vector ETV
attr autoWarmupFilter false
attr interpolationmode sample-hold
attr recordingmode vector
attr source "warmup(count(packetEnqueued) - count(packetDequeued))"
attr title "queue length"
vector 146 MangMoPhong.U24.wlan[0].mac.dcf.channelAccess.contention backoffActive:vector ETV
attr autoWarmupFilter false
attr interpolationmode sample-hold
attr recordingmode vector
attr source warmup(count(backoffStarted)-count(backoffStopped))
attr title "backoff active"
vector 147 MangMoPhong.U24.udp passedUpPk:vector(count) ETV
attr interpolationmode none
attr recordingmode vector(count)
attr source packetSentToUpper
attr title "packets passed up, count"
vector 148 MangMoPhong.U24.udp droppedPkWrongPort:vector(count) ETV
attr interpolationmode none
attr recordingmode vector(count)
attr source packetDropReasonIsNoPortFound(packetDropped)
attr title "packets dropped (wrong port), count"
vector 149 MangMoPhong.U24.udp droppedPkBadChecksum:vector(count) ETV
attr interpolationmode none
attr recordingmode vector(count)
attr source packetDropReasonIsIncorrectlyReceived(packetDropped)
attr title "packets dropped (checksum error), count"
vector 150 MangMoPhong.U25.wlan[0].mac.dcf frameSequenceActive:vector ETV
attr autoWarmupFilter false
attr interpolationmode sample-hold
attr recordingmode vector
attr source warmup(count(frameSequenceStarted)-count(frameSequenceFinished))
attr title "frame sequence active"
vector 151 MangMoPhong.U25.wlan[0].mac.dcf.channelAccess.inProgressFrames queueLength:vector ETV
attr autoWarmupFilter false
attr interpolationmode sample-hold
attr recordingmode vector
attr source "warmup(count(packetEnqueued) - count(packetDequeued))"
attr title "queue length"
vector 152 MangMoPhong.U25.wlan[0].mac.dcf.channelAccess.contention backoffActive:vector ETV
attr autoWarmupFilter false
attr interpolationmode sample-hold
attr recordingmode vector
attr source warmup(count(backoffStarted)-count(backoffStopped))
attr title "backoff active"
vector 153 MangMoPhong.U25.udp passedUpPk:vector(count) ETV
attr interpolationmode none
attr recordingmode vector(count)
attr source packetSentToUpper
attr title "packets passed up, count"
vector 154 MangMoPhong.U25.udp droppedPkWrongPort:vector(count) ETV
attr interpolationmode none
attr recordingmode vector(count)
attr source packetDropReasonIsNoPortFound(packetDropped)
attr title "packets dropped (wrong port), count"
vector 155 MangMoPhong.U25.udp droppedPkBadChecksum:vector(count) ETV
attr interpolationmode none
attr recordingmode vector(count)
attr source packetDropReasonIsIncorrectlyReceived(packetDropped)
attr title "packets dropped (checksum error), count"
vector 156 MangMoPhong.U1.wlan[0].radio radioMode:vector ETV
attr interpolationmode sample-hold
attr recordingmode vector
attr source radioModeChanged
attr title "Radio mode"
vector 157 MangMoPhong.U1.wlan[0].radio radioChannel:vector ETV
attr interpolationmode sample-hold
attr recordingmode vector
attr source radioChannelChanged
attr title "Radio channel"
vector 158 MangMoPhong.GCS.wlan[0].radio radioMode:vector ETV
attr interpolationmode sample-hold
attr recordingmode vector
attr source radioModeChanged
attr title "Radio mode"
vector 159 MangMoPhong.GCS.wlan[0].radio radioChannel:vector ETV
attr interpolationmode sample-hold
attr recordingmode vector
attr source radioChannelChanged
attr title "Radio channel"
vector 160 MangMoPhong.U2.wlan[0].radio radioMode:vector ETV
attr interpolationmode sample-hold
attr recordingmode vector
attr source radioModeChanged
attr title "Radio mode"
vector 161 MangMoPhong.U2.wlan[0].radio radioChannel:vector ETV
attr interpolationmode sample-hold
attr recordingmode vector
attr source radioChannelChanged
attr title "Radio channel"
vector 162 MangMoPhong.U3.wlan[0].radio radioMode:vector ETV
attr interpolationmode sample-hold
attr recordingmode vector
attr source radioModeChanged
attr title "Radio mode"
vector 163 MangMoPhong.U3.wlan[0].radio radioChannel:vector ETV
attr interpolationmode sample-hold
attr recordingmode vector
attr source radioChannelChanged
attr title "Radio channel"
vector 164 MangMoPhong.U4.wlan[0].radio radioMode:vector ETV
attr interpolationmode sample-hold
attr recordingmode vector
attr source radioModeChanged
attr title "Radio mode"
vector 165 MangMoPhong.U4.wlan[0].radio radioChannel:vector ETV
attr interpolationmode sample-hold
attr recordingmode vector
attr source radioChannelChanged
attr title "Radio channel"
vector 166 MangMoPhong.U5.wlan[0].radio radioMode:vector ETV
attr interpolationmode sample-hold
attr recordingmode vector
attr source radioModeChanged
attr title "Radio mode"
vector 167 MangMoPhong.U5.wlan[0].radio radioChannel:vector ETV
attr interpolationmode sample-hold
attr recordingmode vector
attr source radioChannelChanged
attr title "Radio channel"
vector 168 MangMoPhong.U6.wlan[0].radio radioMode:vector ETV
attr interpolationmode sample-hold
attr recordingmode vector
attr source radioModeChanged
attr title "Radio mode"
vector 169 MangMoPhong.U6.wlan[0].radio radioChannel:vector ETV
attr interpolationmode sample-hold
attr recordingmode vector
attr source radioChannelChanged
attr title "Radio channel"
vector 170 MangMoPhong.U7.wlan[0].radio radioMode:vector ETV
attr interpolationmode sample-hold
attr recordingmode vector
attr source radioModeChanged
attr title "Radio mode"
vector 171 MangMoPhong.U7.wlan[0].radio radioChannel:vector ETV
attr interpolationmode sample-hold
attr recordingmode vector
attr source radioChannelChanged
attr title "Radio channel"
vector 172 MangMoPhong.U8.wlan[0].radio radioMode:vector ETV
attr interpolationmode sample-hold
attr recordingmode vector
attr source radioModeChanged
attr title "Radio mode"
vector 173 MangMoPhong.U8.wlan[0].radio radioChannel:vector ETV
attr interpolationmode sample-hold
attr recordingmode vector
attr source radioChannelChanged
attr title "Radio channel"
vector 174 MangMoPhong.U9.wlan[0].radio radioMode:vector ETV
attr interpolationmode sample-hold
attr recordingmode vector
attr source radioModeChanged
attr title "Radio mode"
vector 175 MangMoPhong.U9.wlan[0].radio radioChannel:vector ETV
attr interpolationmode sample-hold
attr recordingmode vector
attr source radioChannelChanged
attr title "Radio channel"
vector 176 MangMoPhong.U10.wlan[0].radio radioMode:vector ETV
attr interpolationmode sample-hold
attr recordingmode vector
attr source radioModeChanged
attr title "Radio mode"
vector 177 MangMoPhong.U10.wlan[0].radio radioChannel:vector ETV
attr interpolationmode sample-hold
attr recordingmode vector
attr source radioChannelChanged
attr title "Radio channel"
vector 178 MangMoPhong.U11.wlan[0].radio radioMode:vector ETV
attr interpolationmode sample-hold
attr recordingmode vector
attr source radioModeChanged
attr title "Radio mode"
vector 179 MangMoPhong.U11.wlan[0].radio radioChannel:vector ETV
attr interpolationmode sample-hold
attr recordingmode vector
attr source radioChannelChanged
attr title "Radio channel"
vector 180 MangMoPhong.U12.wlan[0].radio radioMode:vector ETV
attr interpolationmode sample-hold
attr recordingmode vector
attr source radioModeChanged
attr title "Radio mode"
vector 181 MangMoPhong.U12.wlan[0].radio radioChannel:vector ETV
attr interpolationmode sample-hold
attr recordingmode vector
attr source radioChannelChanged
attr title "Radio channel"
vector 182 MangMoPhong.U13.wlan[0].radio radioMode:vector ETV
attr interpolationmode sample-hold
attr recordingmode vector
attr source radioModeChanged
attr title "Radio mode"
vector 183 MangMoPhong.U13.wlan[0].radio radioChannel:vector ETV
attr interpolationmode sample-hold
attr recordingmode vector
attr source radioChannelChanged
attr title "Radio channel"
vector 184 MangMoPhong.U14.wlan[0].radio radioMode:vector ETV
attr interpolationmode sample-hold
attr recordingmode vector
attr source radioModeChanged
attr title "Radio mode"
vector 185 MangMoPhong.U14.wlan[0].radio radioChannel:vector ETV
attr interpolationmode sample-hold
attr recordingmode vector
attr source radioChannelChanged
attr title "Radio channel"
vector 186 MangMoPhong.U15.wlan[0].radio radioMode:vector ETV
attr interpolationmode sample-hold
attr recordingmode vector
attr source radioModeChanged
attr title "Radio mode"
vector 187 MangMoPhong.U15.wlan[0].radio radioChannel:vector ETV
attr interpolationmode sample-hold
attr recordingmode vector
attr source radioChannelChanged
attr title "Radio channel"
vector 188 MangMoPhong.U16.wlan[0].radio radioMode:vector ETV
attr interpolationmode sample-hold
attr recordingmode vector
attr source radioModeChanged
attr title "Radio mode"
vector 189 MangMoPhong.U16.wlan[0].radio radioChannel:vector ETV
attr interpolationmode sample-hold
attr recordingmode vector
attr source radioChannelChanged
attr title "Radio channel"
vector 190 MangMoPhong.U17.wlan[0].radio radioMode:vector ETV
attr interpolationmode sample-hold
attr recordingmode vector
attr source radioModeChanged
attr title "Radio mode"
vector 191 MangMoPhong.U17.wlan[0].radio radioChannel:vector ETV
attr interpolationmode sample-hold
attr recordingmode vector
attr source radioChannelChanged
attr title "Radio channel"
vector 192 MangMoPhong.U18.wlan[0].radio radioMode:vector ETV
attr interpolationmode sample-hold
attr recordingmode vector
attr source radioModeChanged
attr title "Radio mode"
vector 193 MangMoPhong.U18.wlan[0].radio radioChannel:vector ETV
attr interpolationmode sample-hold
attr recordingmode vector
attr source radioChannelChanged
attr title "Radio channel"
vector 194 MangMoPhong.U19.wlan[0].radio radioMode:vector ETV
attr interpolationmode sample-hold
attr recordingmode vector
attr source radioModeChanged
attr title "Radio mode"
vector 195 MangMoPhong.U19.wlan[0].radio radioChannel:vector ETV
attr interpolationmode sample-hold
attr recordingmode vector
attr source radioChannelChanged
attr title "Radio channel"
vector 196 MangMoPhong.U20.wlan[0].radio radioMode:vector ETV
attr interpolationmode sample-hold
attr recordingmode vector
attr source radioModeChanged
attr title "Radio mode"
vector 197 MangMoPhong.U20.wlan[0].radio radioChannel:vector ETV
attr interpolationmode sample-hold
attr recordingmode vector
attr source radioChannelChanged
attr title "Radio channel"
vector 198 MangMoPhong.U21.wlan[0].radio radioMode:vector ETV
attr interpolationmode sample-hold
attr recordingmode vector
attr source radioModeChanged
attr title "Radio mode"
vector 199 MangMoPhong.U21.wlan[0].radio radioChannel:vector ETV
attr interpolationmode sample-hold
attr recordingmode vector
attr source radioChannelChanged
attr title "Radio channel"
vector 200 MangMoPhong.U22.wlan[0].radio radioMode:vector ETV
attr interpolationmode sample-hold
attr recordingmode vector
attr source radioModeChanged
attr title "Radio mode"
vector 201 MangMoPhong.U22.wlan[0].radio radioChannel:vector ETV
attr interpolationmode sample-hold
attr recordingmode vector
attr source radioChannelChanged
attr title "Radio channel"
vector 202 MangMoPhong.U23.wlan[0].radio radioMode:vector ETV
attr interpolationmode sample-hold
attr recordingmode vector
attr source radioModeChanged
attr title "Radio mode"
vector 203 MangMoPhong.U23.wlan[0].radio radioChannel:vector ETV
attr interpolationmode sample-hold
attr recordingmode vector
attr source radioChannelChanged
attr title "Radio channel"
vector 204 MangMoPhong.U24.wlan[0].radio radioMode:vector ETV
attr interpolationmode sample-hold
attr recordingmode vector
attr source radioModeChanged
attr title "Radio mode"
vector 205 MangMoPhong.U24.wlan[0].radio radioChannel:vector ETV
attr interpolationmode sample-hold
attr recordingmode vector
attr source radioChannelChanged
attr title "Radio channel"
vector 206 MangMoPhong.U25.wlan[0].radio radioMode:vector ETV
attr interpolationmode sample-hold
attr recordingmode vector
attr source radioModeChanged
attr title "Radio mode"
vector 207 MangMoPhong.U25.wlan[0].radio radioChannel:vector ETV
attr interpolationmode sample-hold
attr recordingmode vector
attr source radioChannelChanged
attr title "Radio channel"
vector 208 MangMoPhong.U1.wlan[0].radio receptionState:vector ETV
attr interpolationmode sample-hold
attr recordingmode vector
attr source receptionStateChanged
attr title "Radio reception state"
vector 209 MangMoPhong.U1.wlan[0].mac.dcf.channelAccess.contention stateChanged:vector ETV
attr enum IDLE,DEFER,IFS_AND_BACKOFF
attr interpolationmode none
attr recordingmode vector
attr title "contention state changed"
attr type enum
vector 210 MangMoPhong.GCS.wlan[0].radio receptionState:vector ETV
attr interpolationmode sample-hold
attr recordingmode vector
attr source receptionStateChanged
attr title "Radio reception state"
vector 211 MangMoPhong.GCS.wlan[0].mac.dcf.channelAccess.contention stateChanged:vector ETV
attr enum IDLE,DEFER,IFS_AND_BACKOFF
attr interpolationmode none
attr recordingmode vector
attr title "contention state changed"
attr type enum
vector 212 MangMoPhong.U2.wlan[0].radio receptionState:vector ETV
attr interpolationmode sample-hold
attr recordingmode vector
attr source receptionStateChanged
attr title "Radio reception state"
vector 213 MangMoPhong.U2.wlan[0].mac.dcf.channelAccess.contention stateChanged:vector ETV
attr enum IDLE,DEFER,IFS_AND_BACKOFF
attr interpolationmode none
attr recordingmode vector
attr title "contention state changed"
attr type enum
vector 214 MangMoPhong.U3.wlan[0].radio receptionState:vector ETV
attr interpolationmode sample-hold
attr recordingmode vector
attr source receptionStateChanged
attr title "Radio reception state"
vector 215 MangMoPhong.U3.wlan[0].mac.dcf.channelAccess.contention stateChanged:vector ETV
attr enum IDLE,DEFER,IFS_AND_BACKOFF
attr interpolationmode none
attr recordingmode vector
attr title "contention state changed"
attr type enum
vector 216 MangMoPhong.U4.wlan[0].radio receptionState:vector ETV
attr interpolationmode sample-hold
attr recordingmode vector
attr source receptionStateChanged
attr title "Radio reception state"
vector 217 MangMoPhong.U4.wlan[0].mac.dcf.channelAccess.contention stateChanged:vector ETV
attr enum IDLE,DEFER,IFS_AND_BACKOFF
attr interpolationmode none
attr recordingmode vector
attr title "contention state changed"
attr type enum
vector 218 MangMoPhong.U5.wlan[0].radio receptionState:vector ETV
attr interpolationmode sample-hold
attr recordingmode vector
attr source receptionStateChanged
attr title "Radio reception state"
vector 219 MangMoPhong.U5.wlan[0].mac.dcf.channelAccess.contention stateChanged:vector ETV
attr enum IDLE,DEFER,IFS_AND_BACKOFF
attr interpolationmode none
attr recordingmode vector
attr title "contention state changed"
attr type enum
vector 220 MangMoPhong.U6.wlan[0].radio receptionState:vector ETV
attr interpolationmode sample-hold
attr recordingmode vector
attr source receptionStateChanged
attr title "Radio reception state"
vector 221 MangMoPhong.U6.wlan[0].mac.dcf.channelAccess.contention stateChanged:vector ETV
attr enum IDLE,DEFER,IFS_AND_BACKOFF
attr interpolationmode none
attr recordingmode vector
attr title "contention state changed"
attr type enum
vector 222 MangMoPhong.U7.wlan[0].radio receptionState:vector ETV
attr interpolationmode sample-hold
attr recordingmode vector
attr source receptionStateChanged
attr title "Radio reception state"
vector 223 MangMoPhong.U7.wlan[0].mac.dcf.channelAccess.contention stateChanged:vector ETV
attr enum IDLE,DEFER,IFS_AND_BACKOFF
attr interpolationmode none
attr recordingmode vector
attr title "contention state changed"
attr type enum
vector 224 MangMoPhong.U8.wlan[0].radio receptionState:vector ETV
attr interpolationmode sample-hold
attr recordingmode vector
attr source receptionStateChanged
attr title "Radio reception state"
vector 225 MangMoPhong.U8.wlan[0].mac.dcf.channelAccess.contention stateChanged:vector ETV
attr enum IDLE,DEFER,IFS_AND_BACKOFF
attr interpolationmode none
attr recordingmode vector
attr title "contention state changed"
attr type enum
vector 226 MangMoPhong.U9.wlan[0].radio receptionState:vector ETV
attr interpolationmode sample-hold
attr recordingmode vector
attr source receptionStateChanged
attr title "Radio reception state"
vector 227 MangMoPhong.U9.wlan[0].mac.dcf.channelAccess.contention stateChanged:vector ETV
attr enum IDLE,DEFER,IFS_AND_BACKOFF
attr interpolationmode none
attr recordingmode vector
attr title "contention state changed"
attr type enum
vector 228 MangMoPhong.U10.wlan[0].radio receptionState:vector ETV
attr interpolationmode sample-hold
attr recordingmode vector
attr source receptionStateChanged
attr title "Radio reception state"
vector 229 MangMoPhong.U10.wlan[0].mac.dcf.channelAccess.contention stateChanged:vector ETV
attr enum IDLE,DEFER,IFS_AND_BACKOFF
attr interpolationmode none
attr recordingmode vector
attr title "contention state changed"
attr type enum
vector 230 MangMoPhong.U11.wlan[0].radio receptionState:vector ETV
attr interpolationmode sample-hold
attr recordingmode vector
attr source receptionStateChanged
attr title "Radio reception state"
vector 231 MangMoPhong.U11.wlan[0].mac.dcf.channelAccess.contention stateChanged:vector ETV
attr enum IDLE,DEFER,IFS_AND_BACKOFF
attr interpolationmode none
attr recordingmode vector
attr title "contention state changed"
attr type enum
vector 232 MangMoPhong.U12.wlan[0].radio receptionState:vector ETV
attr interpolationmode sample-hold
attr recordingmode vector
attr source receptionStateChanged
attr title "Radio reception state"
vector 233 MangMoPhong.U12.wlan[0].mac.dcf.channelAccess.contention stateChanged:vector ETV
attr enum IDLE,DEFER,IFS_AND_BACKOFF
attr interpolationmode none
attr recordingmode vector
attr title "contention state changed"
attr type enum
vector 234 MangMoPhong.U13.wlan[0].radio receptionState:vector ETV
attr interpolationmode sample-hold
attr recordingmode vector
attr source receptionStateChanged
attr title "Radio reception state"
vector 235 MangMoPhong.U13.wlan[0].mac.dcf.channelAccess.contention stateChanged:vector ETV
attr enum IDLE,DEFER,IFS_AND_BACKOFF
attr interpolationmode none
attr recordingmode vector
attr title "contention state changed"
attr type enum
vector 236 MangMoPhong.U14.wlan[0].radio receptionState:vector ETV
attr interpolationmode sample-hold
attr recordingmode vector
attr source receptionStateChanged
attr title "Radio reception state"
vector 237 MangMoPhong.U14.wlan[0].mac.dcf.channelAccess.contention stateChanged:vector ETV
attr enum IDLE,DEFER,IFS_AND_BACKOFF
attr interpolationmode none
attr recordingmode vector
attr title "contention state changed"
attr type enum
vector 238 MangMoPhong.U15.wlan[0].radio receptionState:vector ETV
attr interpolationmode sample-hold
attr recordingmode vector
attr source receptionStateChanged
attr title "Radio reception state"
vector 239 MangMoPhong.U15.wlan[0].mac.dcf.channelAccess.contention stateChanged:vector ETV
attr enum IDLE,DEFER,IFS_AND_BACKOFF
attr interpolationmode none
attr recordingmode vector
attr title "contention state changed"
attr type enum
vector 240 MangMoPhong.U16.wlan[0].radio receptionState:vector ETV
attr interpolationmode sample-hold
attr recordingmode vector
attr source receptionStateChanged
attr title "Radio reception state"
vector 241 MangMoPhong.U16.wlan[0].mac.dcf.channelAccess.contention stateChanged:vector ETV
attr enum IDLE,DEFER,IFS_AND_BACKOFF
attr interpolationmode none
attr recordingmode vector
attr title "contention state changed"
attr type enum
vector 242 MangMoPhong.U17.wlan[0].radio receptionState:vector ETV
attr interpolationmode sample-hold
attr recordingmode vector
attr source receptionStateChanged
attr title "Radio reception state"
vector 243 MangMoPhong.U17.wlan[0].mac.dcf.channelAccess.contention stateChanged:vector ETV
attr enum IDLE,DEFER,IFS_AND_BACKOFF
attr interpolationmode none
attr recordingmode vector
attr title "contention state changed"
attr type enum
vector 244 MangMoPhong.U18.wlan[0].radio receptionState:vector ETV
attr interpolationmode sample-hold
attr recordingmode vector
attr source receptionStateChanged
attr title "Radio reception state"
vector 245 MangMoPhong.U18.wlan[0].mac.dcf.channelAccess.contention stateChanged:vector ETV
attr enum IDLE,DEFER,IFS_AND_BACKOFF
attr interpolationmode none
attr recordingmode vector
attr title "contention state changed"
attr type enum
vector 246 MangMoPhong.U19.wlan[0].radio receptionState:vector ETV
attr interpolationmode sample-hold
attr recordingmode vector
attr source receptionStateChanged
attr title "Radio reception state"
vector 247 MangMoPhong.U19.wlan[0].mac.dcf.channelAccess.contention stateChanged:vector ETV
attr enum IDLE,DEFER,IFS_AND_BACKOFF
attr interpolationmode none
attr recordingmode vector
attr title "contention state changed"
attr type enum
vector 248 MangMoPhong.U20.wlan[0].radio receptionState:vector ETV
attr interpolationmode sample-hold
attr recordingmode vector
attr source receptionStateChanged
attr title "Radio reception state"
vector 249 MangMoPhong.U20.wlan[0].mac.dcf.channelAccess.contention stateChanged:vector ETV
attr enum IDLE,DEFER,IFS_AND_BACKOFF
attr interpolationmode none
attr recordingmode vector
attr title "contention state changed"
attr type enum
vector 250 MangMoPhong.U21.wlan[0].radio receptionState:vector ETV
attr interpolationmode sample-hold
attr recordingmode vector
attr source receptionStateChanged
attr title "Radio reception state"
vector 251 MangMoPhong.U21.wlan[0].mac.dcf.channelAccess.contention stateChanged:vector ETV
attr enum IDLE,DEFER,IFS_AND_BACKOFF
attr interpolationmode none
attr recordingmode vector
attr title "contention state changed"
attr type enum
vector 252 MangMoPhong.U22.wlan[0].radio receptionState:vector ETV
attr interpolationmode sample-hold
attr recordingmode vector
attr source receptionStateChanged
attr title "Radio reception state"
vector 253 MangMoPhong.U22.wlan[0].mac.dcf.channelAccess.contention stateChanged:vector ETV
attr enum IDLE,DEFER,IFS_AND_BACKOFF
attr interpolationmode none
attr recordingmode vector
attr title "contention state changed"
attr type enum
vector 254 MangMoPhong.U23.wlan[0].radio receptionState:vector ETV
attr interpolationmode sample-hold
attr recordingmode vector
attr source receptionStateChanged
attr title "Radio reception state"
vector 255 MangMoPhong.U23.wlan[0].mac.dcf.channelAccess.contention stateChanged:vector ETV
attr enum IDLE,DEFER,IFS_AND_BACKOFF
attr interpolationmode none
attr recordingmode vector
attr title "contention state changed"
attr type enum
vector 256 MangMoPhong.U24.wlan[0].radio receptionState:vector ETV
attr interpolationmode sample-hold
attr recordingmode vector
attr source receptionStateChanged
attr title "Radio reception state"
vector 257 MangMoPhong.U24.wlan[0].mac.dcf.channelAccess.contention stateChanged:vector ETV
attr enum IDLE,DEFER,IFS_AND_BACKOFF
attr interpolationmode none
attr recordingmode vector
attr title "contention state changed"
attr type enum
vector 258 MangMoPhong.U25.wlan[0].radio receptionState:vector ETV
attr interpolationmode sample-hold
attr recordingmode vector
attr source receptionStateChanged
attr title "Radio reception state"
vector 259 MangMoPhong.U25.wlan[0].mac.dcf.channelAccess.contention stateChanged:vector ETV
attr enum IDLE,DEFER,IFS_AND_BACKOFF
attr interpolationmode none
attr recordingmode vector
attr title "contention state changed"
attr type enum
vector 260 MangMoPhong.U1.wlan[0].mac.dcf.recoveryProcedure contentionWindowChanged:vector ETV
attr interpolationmode sample-hold
attr recordingmode vector
attr title "contention window"
vector 261 MangMoPhong.GCS.wlan[0].mac.dcf.recoveryProcedure contentionWindowChanged:vector ETV
attr interpolationmode sample-hold
attr recordingmode vector
attr title "contention window"
vector 262 MangMoPhong.U2.wlan[0].mac.dcf.recoveryProcedure contentionWindowChanged:vector ETV
attr interpolationmode sample-hold
attr recordingmode vector
attr title "contention window"
vector 263 MangMoPhong.U3.wlan[0].mac.dcf.recoveryProcedure contentionWindowChanged:vector ETV
attr interpolationmode sample-hold
attr recordingmode vector
attr title "contention window"
vector 264 MangMoPhong.U4.wlan[0].mac.dcf.recoveryProcedure contentionWindowChanged:vector ETV
attr interpolationmode sample-hold
attr recordingmode vector
attr title "contention window"
vector 265 MangMoPhong.U5.wlan[0].mac.dcf.recoveryProcedure contentionWindowChanged:vector ETV
attr interpolationmode sample-hold
attr recordingmode vector
attr title "contention window"
vector 266 MangMoPhong.U6.wlan[0].mac.dcf.recoveryProcedure contentionWindowChanged:vector ETV
attr interpolationmode sample-hold
attr recordingmode vector
attr title "contention window"
vector 267 MangMoPhong.U7.wlan[0].mac.dcf.recoveryProcedure contentionWindowChanged:vector ETV
attr interpolationmode sample-hold
attr recordingmode vector
attr title "contention window"
vector 268 MangMoPhong.U8.wlan[0].mac.dcf.recoveryProcedure contentionWindowChanged:vector ETV
attr interpolationmode sample-hold
attr recordingmode vector
attr title "contention window"
vector 269 MangMoPhong.U9.wlan[0].mac.dcf.recoveryProcedure contentionWindowChanged:vector ETV
attr interpolationmode sample-hold
attr recordingmode vector
attr title "contention window"
vector 270 MangMoPhong.U10.wlan[0].mac.dcf.recoveryProcedure contentionWindowChanged:vector ETV
attr interpolationmode sample-hold
attr recordingmode vector
attr title "contention window"
vector 271 MangMoPhong.U11.wlan[0].mac.dcf.recoveryProcedure contentionWindowChanged:vector ETV
attr interpolationmode sample-hold
attr recordingmode vector
attr title "contention window"
vector 272 MangMoPhong.U12.wlan[0].mac.dcf.recoveryProcedure contentionWindowChanged:vector ETV
attr interpolationmode sample-hold
attr recordingmode vector
attr title "contention window"
vector 273 MangMoPhong.U13.wlan[0].mac.dcf.recoveryProcedure contentionWindowChanged:vector ETV
attr interpolationmode sample-hold
attr recordingmode vector
attr title "contention window"
vector 274 MangMoPhong.U14.wlan[0].mac.dcf.recoveryProcedure contentionWindowChanged:vector ETV
attr interpolationmode sample-hold
attr recordingmode vector
attr title "contention window"
vector 275 MangMoPhong.U15.wlan[0].mac.dcf.recoveryProcedure contentionWindowChanged:vector ETV
attr interpolationmode sample-hold
attr recordingmode vector
attr title "contention window"
vector 276 MangMoPhong.U16.wlan[0].mac.dcf.recoveryProcedure contentionWindowChanged:vector ETV
attr interpolationmode sample-hold
attr recordingmode vector
attr title "contention window"
vector 277 MangMoPhong.U17.wlan[0].mac.dcf.recoveryProcedure contentionWindowChanged:vector ETV
attr interpolationmode sample-hold
attr recordingmode vector
attr title "contention window"
vector 278 MangMoPhong.U18.wlan[0].mac.dcf.recoveryProcedure contentionWindowChanged:vector ETV
attr interpolationmode sample-hold
attr recordingmode vector
attr title "contention window"
vector 279 MangMoPhong.U19.wlan[0].mac.dcf.recoveryProcedure contentionWindowChanged:vector ETV
attr interpolationmode sample-hold
attr recordingmode vector
attr title "contention window"
vector 280 MangMoPhong.U20.wlan[0].mac.dcf.recoveryProcedure contentionWindowChanged:vector ETV
attr interpolationmode sample-hold
attr recordingmode vector
attr title "contention window"
vector 281 MangMoPhong.U21.wlan[0].mac.dcf.recoveryProcedure contentionWindowChanged:vector ETV
attr interpolationmode sample-hold
attr recordingmode vector
attr title "contention window"
vector 282 MangMoPhong.U22.wlan[0].mac.dcf.recoveryProcedure contentionWindowChanged:vector ETV
attr interpolationmode sample-hold
attr recordingmode vector
attr title "contention window"
vector 283 MangMoPhong.U23.wlan[0].mac.dcf.recoveryProcedure contentionWindowChanged:vector ETV
attr interpolationmode sample-hold
attr recordingmode vector
attr title "contention window"
vector 284 MangMoPhong.U24.wlan[0].mac.dcf.recoveryProcedure contentionWindowChanged:vector ETV
attr interpolationmode sample-hold
attr recordingmode vector
attr title "contention window"
vector 285 MangMoPhong.U25.wlan[0].mac.dcf.recoveryProcedure contentionWindowChanged:vector ETV
attr interpolationmode sample-hold
attr recordingmode vector
attr title "contention window"
vector 286 MangMoPhong.U22.wlan[0].mac packetReceivedFromUpper:vector(packetBytes) ETV
attr interpolationmode none
attr recordingmode vector(packetBytes)
attr title "packets received from upper layer, packetBytes"
vector 287 MangMoPhong.U22.wlan[0].mac.dcf.channelAccess.pendingQueue incomingPacketLengths:vector ETV
attr interpolationmode none
attr recordingmode vector
attr source packetLength(packetPushStarted)
attr title "incoming packet lengths"
attr unit b
vector 288 MangMoPhong.U22.wlan[0].mac.dcf.channelAccess.pendingQueue queueLength:vector ETV
attr autoWarmupFilter false
attr interpolationmode sample-hold
attr recordingmode vector
attr source "warmup(atomic(constant0(packetPushEnded) + count(packetPushStarted) - count(packetPulled) - count(packetRemoved) - count(packetDropped)))"
attr title "queue length"
attr unit pk
vector 289 MangMoPhong.U22.wlan[0].mac.dcf.channelAccess.pendingQueue queueBitLength:vector ETV
attr autoWarmupFilter false
attr interpolationmode sample-hold
attr recordingmode vector
attr source "warmup(atomic(constant0(packetPushEnded) + sum(packetLength(packetPushStarted)) - sum(packetLength(packetPulled)) - sum(packetLength(packetRemoved)) - sum(packetLength(packetDropped))))"
attr title "queue bit length"
attr unit b
vector 290 MangMoPhong.U22.wlan[0].mac.dcf.channelAccess.contention backoffPeriodGenerated:vector ETV
attr interpolationmode none
attr recordingmode vector
attr title "backoff periods"
vector 291 MangMoPhong.U22.wlan[0].mac.dcf.channelAccess.pendingQueue queueingTime:vector ETV
attr interpolationmode none
attr recordingmode vector
attr source queueingTime(packetPulled)
attr title "queueing times"
attr unit s
vector 292 MangMoPhong.U22.wlan[0].mac.dcf.channelAccess.pendingQueue outgoingPacketLengths:vector ETV
attr interpolationmode none
attr recordingmode vector
attr source packetLength(packetPulled)
attr title "outgoing packet lengths"
attr unit b
vector 293 MangMoPhong.U22.wlan[0].mac.dcf datarateSelected:vector ETV
attr interpolationmode none
attr recordingmode vector
attr title "datarates selected"
vector 294 MangMoPhong.U22.wlan[0].mac packetSentToLower:vector(packetBytes) ETV
attr interpolationmode none
attr recordingmode vector(packetBytes)
attr title "packets sent to lower layer, packetBytes"
vector 295 MangMoPhong.U22.wlan[0].radio transmissionState:vector ETV
attr interpolationmode sample-hold
attr recordingmode vector
attr source transmissionStateChanged
attr title "Radio transmission state"
vector 296 MangMoPhong.U22.wlan[0].mac.dcf packetSentToPeer:vector(packetBytes) ETV
attr interpolationmode none
attr recordingmode vector(packetBytes)
attr title "packets sent, packetBytes"
vector 297 MangMoPhong.U22.wlan[0].mac.dcf packetSentToPeerMulticast:vector(packetBytes) ETV
attr interpolationmode none
attr recordingmode vector(packetBytes)
attr source ieee80211Multicast(packetSentToPeer)
attr title "packets sent: multicast, packetBytes"
vector 298 MangMoPhong.U22.wlan[0].mac.dcf packetSentToPeerWithoutRetry:vector(packetBytes) ETV
attr interpolationmode none
attr recordingmode vector(packetBytes)
attr source ieee80211NotRetry(packetSentToPeer)
attr title "packets sent: without retry, packetBytes"
vector 299 MangMoPhong.U22.wlan[0].mac.dcf.channelAccess.inProgressFrames queueingTime:vector ETV
attr interpolationmode none
attr recordingmode vector
attr source queueingTime(packetDequeued)
attr title "queueing times"
vector 300 MangMoPhong.U2.wlan[0].mac packetReceivedFromLower:vector(packetBytes) ETV
attr interpolationmode none
attr recordingmode vector(packetBytes)
attr title "packets received from lower layer, packetBytes"
vector 301 MangMoPhong.U2.wlan[0].mac.dcf packetReceivedFromPeer:vector(packetBytes) ETV
attr interpolationmode none
attr recordingmode vector(packetBytes)
attr title "packets received, packetBytes"
vector 302 MangMoPhong.U2.wlan[0].mac.dcf packetReceivedFromPeerMulticast:vector(packetBytes) ETV
attr interpolationmode none
attr recordingmode vector(packetBytes)
attr source ieee80211Multicast(packetReceivedFromPeer)
attr title "packets received: multicast, packetBytes"
vector 303 MangMoPhong.U2.wlan[0].mac.dcf packetReceivedFromPeerWithoutRetry:vector(packetBytes) ETV
attr interpolationmode none
attr recordingmode vector(packetBytes)
attr source ieee80211NotRetry(packetReceivedFromPeer)
attr title "packets received: without retry, packetBytes"
vector 304 MangMoPhong.U2.wlan[0].mac packetSentToUpper:vector(packetBytes) ETV
attr interpolationmode none
attr recordingmode vector(packetBytes)
attr title "packets sent to upper layer, packetBytes"
vector 305 MangMoPhong.U6.wlan[0].mac packetReceivedFromLower:vector(packetBytes) ETV
attr interpolationmode none
attr recordingmode vector(packetBytes)
attr title "packets received from lower layer, packetBytes"
vector 306 MangMoPhong.U6.wlan[0].mac.dcf packetReceivedFromPeer:vector(packetBytes) ETV
attr interpolationmode none
attr recordingmode vector(packetBytes)
attr title "packets received, packetBytes"
vector 307 MangMoPhong.U6.wlan[0].mac.dcf packetReceivedFromPeerMulticast:vector(packetBytes) ETV
attr interpolationmode none
attr recordingmode vector(packetBytes)
attr source ieee80211Multicast(packetReceivedFromPeer)
attr title "packets received: multicast, packetBytes"
vector 308 MangMoPhong.U6.wlan[0].mac.dcf packetReceivedFromPeerWithoutRetry:vector(packetBytes) ETV
attr interpolationmode none
attr recordingmode vector(packetBytes)
attr source ieee80211NotRetry(packetReceivedFromPeer)
attr title "packets received: without retry, packetBytes"
vector 309 MangMoPhong.U6.wlan[0].mac packetSentToUpper:vector(packetBytes) ETV
attr interpolationmode none
attr recordingmode vector(packetBytes)
attr title "packets sent to upper layer, packetBytes"
vector 310 MangMoPhong.U10.wlan[0].mac packetReceivedFromLower:vector(packetBytes) ETV
attr interpolationmode none
attr recordingmode vector(packetBytes)
attr title "packets received from lower layer, packetBytes"
vector 311 MangMoPhong.U10.wlan[0].mac.dcf packetReceivedFromPeer:vector(packetBytes) ETV
attr interpolationmode none
attr recordingmode vector(packetBytes)
attr title "packets received, packetBytes"
vector 312 MangMoPhong.U10.wlan[0].mac.dcf packetReceivedFromPeerMulticast:vector(packetBytes) ETV
attr interpolationmode none
attr recordingmode vector(packetBytes)
attr source ieee80211Multicast(packetReceivedFromPeer)
attr title "packets received: multicast, packetBytes"
vector 313 MangMoPhong.U10.wlan[0].mac.dcf packetReceivedFromPeerWithoutRetry:vector(packetBytes) ETV
attr interpolationmode none
attr recordingmode vector(packetBytes)
attr source ieee80211NotRetry(packetReceivedFromPeer)
attr title "packets received: without retry, packetBytes"
vector 314 MangMoPhong.U10.wlan[0].mac packetSentToUpper:vector(packetBytes) ETV
attr interpolationmode none
attr recordingmode vector(packetBytes)
attr title "packets sent to upper layer, packetBytes"
vector 315 MangMoPhong.U21.wlan[0].mac packetReceivedFromLower:vector(packetBytes) ETV
attr interpolationmode none
attr recordingmode vector(packetBytes)
attr title "packets received from lower layer, packetBytes"
vector 316 MangMoPhong.U21.wlan[0].mac.dcf packetReceivedFromPeer:vector(packetBytes) ETV
attr interpolationmode none
attr recordingmode vector(packetBytes)
attr title "packets received, packetBytes"
vector 317 MangMoPhong.U21.wlan[0].mac.dcf packetReceivedFromPeerMulticast:vector(packetBytes) ETV
attr interpolationmode none
attr recordingmode vector(packetBytes)
attr source ieee80211Multicast(packetReceivedFromPeer)
attr title "packets received: multicast, packetBytes"
vector 318 MangMoPhong.U21.wlan[0].mac.dcf packetReceivedFromPeerWithoutRetry:vector(packetBytes) ETV
attr interpolationmode none
attr recordingmode vector(packetBytes)
attr source ieee80211NotRetry(packetReceivedFromPeer)
attr title "packets received: without retry, packetBytes"
vector 319 MangMoPhong.U21.wlan[0].mac packetSentToUpper:vector(packetBytes) ETV
attr interpolationmode none
attr recordingmode vector(packetBytes)
attr title "packets sent to upper layer, packetBytes"
vector 320 MangMoPhong.U24.wlan[0].mac packetReceivedFromLower:vector(packetBytes) ETV
attr interpolationmode none
attr recordingmode vector(packetBytes)
attr title "packets received from lower layer, packetBytes"
vector 321 MangMoPhong.U24.wlan[0].mac packetDrop:vector(packetBytes) ETV
attr interpolationmode none
attr recordingmode vector(packetBytes)
attr source packetDropped
attr title "packet drops, packetBytes"
vector 322 MangMoPhong.U24.wlan[0].mac packetDropIncorrectlyReceived:vector(packetBytes) ETV
attr interpolationmode none
attr recordingmode vector(packetBytes)
attr source packetDropReasonIsIncorrectlyReceived(packetDropped)
attr title "packet drops: incorrectly received, packetBytes"
vector 323 MangMoPhong.U9.wlan[0].mac packetReceivedFromLower:vector(packetBytes) ETV
attr interpolationmode none
attr recordingmode vector(packetBytes)
attr title "packets received from lower layer, packetBytes"
vector 324 MangMoPhong.U9.wlan[0].mac packetDrop:vector(packetBytes) ETV
attr interpolationmode none
attr recordingmode vector(packetBytes)
attr source packetDropped
attr title "packet drops, packetBytes"
vector 325 MangMoPhong.U9.wlan[0].mac packetDropIncorrectlyReceived:vector(packetBytes) ETV
attr interpolationmode none
attr recordingmode vector(packetBytes)
attr source packetDropReasonIsIncorrectlyReceived(packetDropped)
attr title "packet drops: incorrectly received, packetBytes"
vector 326 MangMoPhong.U4.wlan[0].mac packetReceivedFromLower:vector(packetBytes) ETV
attr interpolationmode none
attr recordingmode vector(packetBytes)
attr title "packets received from lower layer, packetBytes"
vector 327 MangMoPhong.U4.wlan[0].mac packetDrop:vector(packetBytes) ETV
attr interpolationmode none
attr recordingmode vector(packetBytes)
attr source packetDropped
attr title "packet drops, packetBytes"
vector 328 MangMoPhong.U4.wlan[0].mac packetDropIncorrectlyReceived:vector(packetBytes) ETV
attr interpolationmode none
attr recordingmode vector(packetBytes)
attr source packetDropReasonIsIncorrectlyReceived(packetDropped)
attr title "packet drops: incorrectly received, packetBytes"
vector 329 MangMoPhong.U3.wlan[0].mac packetReceivedFromLower:vector(packetBytes) ETV
attr interpolationmode none
attr recordingmode vector(packetBytes)
attr title "packets received from lower layer, packetBytes"
vector 330 MangMoPhong.U3.wlan[0].mac packetDrop:vector(packetBytes) ETV
attr interpolationmode none
attr recordingmode vector(packetBytes)
attr source packetDropped
attr title "packet drops, packetBytes"
vector 331 MangMoPhong.U3.wlan[0].mac packetDropIncorrectlyReceived:vector(packetBytes) ETV
attr interpolationmode none
attr recordingmode vector(packetBytes)
attr source packetDropReasonIsIncorrectlyReceived(packetDropped)
attr title "packet drops: incorrectly received, packetBytes"
vector 332 MangMoPhong.U14.wlan[0].mac packetReceivedFromLower:vector(packetBytes) ETV
attr interpolationmode none
attr recordingmode vector(packetBytes)
attr title "packets received from lower layer, packetBytes"
vector 333 MangMoPhong.U14.wlan[0].mac packetDrop:vector(packetBytes) ETV
attr interpolationmode none
attr recordingmode vector(packetBytes)
attr source packetDropped
attr title "packet drops, packetBytes"
vector 334 MangMoPhong.U14.wlan[0].mac packetDropIncorrectlyReceived:vector(packetBytes) ETV
attr interpolationmode none
attr recordingmode vector(packetBytes)
attr source packetDropReasonIsIncorrectlyReceived(packetDropped)
attr title "packet drops: incorrectly received, packetBytes"
vector 335 MangMoPhong.U17.wlan[0].mac packetReceivedFromLower:vector(packetBytes) ETV
attr interpolationmode none
[...]
870	97959257 1211 1573565 1660640 293.031129197957 302.250206474378 37 14 14 518 7252
871	97960468 78660 1457953 1683038 279.750028229638 309.751116771545 2322 0 4.4e-05 0.034056 1.498464e-06
872	98039128 66 1572398 1670180 293.007439957955 305.500176663738 2 28 28 56 1568
873	98039194 1830 1458121 1483146 279.750601545564 281.002154034873 54 0 4.4e-05 0.000792 3.4848e-08
874	98041024 17994 1457624 1683048 279.586922062008 309.75111746383 547 14 1304 11678 5219572
875	98059018 17924 1458199 1683048 279.750646332557 309.75111746383 545 14 1304 9070 1818740
876	98076942 17924 1458199 1683048 279.750646332557 309.75111746383 545 14 1304 9070 1818740
877	98094866 37126 1458053 1668160 279.750073774568 304.750192630578 1107 14 1304 472548 600696312
878	98131992 37126 1458053 1668160 279.750073774568 304.750192630578 1107 14 1304 472548 600696312
879	98169118 37126 1458053 1668160 279.750073774568 304.750192630578 1107 14 1304 472548 600696312
880	98206244 66 1572544 1670319 293.022955957955 305.500472663738 2 64 64 128 8192
881	98206310 231 1471601 1680125 280.503528604765 308.500678112962 7 64 64 448 28672
883	98206541 33 1505870 1505870 282.004219937561 282.004219937561 1 64 64 64 4096
887	98206574 1530 1457298 1680265 279.545941239497 308.500834839545 45 0 4.4e-05 0.00066 2.904e-08
888	98208104 40905 1512908 1648548 284.251101298876 298.31676899751 1206 0 4.4e-05 0.017688 7.78272e-07
889	98249009 46850 1458119 1682976 279.750601467906 309.751072771545 1391 14 1304 745944 957512096
890	98295859 46535 1458119 1682976 279.750601467906 309.751072771545 1382 14 1304 734208 942208352
891	98342394 46535 1458119 1682976 279.750601467906 309.751072771545 1382 14 1304 734208 942208352
894	98388929 1009 1458465 1674830 279.752817949919 306.753524546089 29 1304 1304 37816 49312064
895	98389938 50539 1457303 1681676 279.545941971504 309.251199288179 1500 14 1304 761818 964577628
896	98440477 139 1531328 1671292 289.040910629744 305.548812265058 4 1304 1304 5216 6801664
897	98440616 139 1531328 1671292 289.040910629744 305.548812265058 4 1304 1304 5216 6801664
899	98440755 16160 1457956 1647978 279.750028541563 298.251585619631 483 14 1304 182202 231324588
900	98456915 16160 1457956 1647978 279.750028541563 298.251585619631 483 14 1304 182202 231324588
901	98473075 16160 1457956 1647978 279.750028541563 298.251585619631 483 14 1304 182202 231324588
902	98489235 691 1505805 1538471 282.003848107139 290.251959761901 21 14 14 294 4116
903	98489926 691 1505805 1538471 282.003848107139 290.251959761901 21 14 14 294 4116
904	98490617 691 1505805 1538471 282.003848107139 290.251959761901 21 14 14 294 4116
905	98491308 33476 1458039 1682913 279.750073370108 309.750185333095 990 14 1304 591260 754451280
906	98524784 32856 1458039 1682913 279.750073370108 309.750185333095 972 14 1304 576844 737210448
907	98557640 32856 1458039 1682913 279.750073370108 309.750185333095 972 14 1304 576844 737210448
908	98590496 4012 1505803 1683050 282.003848032733 309.751117611361 122 14 14 1708 23912
909	98594508 4012 1505803 1683050 282.003848032733 309.751117611361 122 14 14 1708 23912
910	98598520 4012 1505803 1683050 282.003848032733 309.751117611361 122 14 14 1708 23912
913	98602532 164 1534972 1545744 289.74987602949 291.252092816764 5 64 64 320 20480
915	98602696 33 1535698 1535698 289.754735215586 289.754735215586 1 28 28 28 784
916	98602729 2398 1535761 1564781 289.755227215586 291.406371055728 71 14 1304 38320 47833592
917	98605127 92643 1458254 1656173 279.751233370102 300.750215817224 2733 0 4.4e-05 0.040084 1.763696e-06
918	98697770 2265 1535915 1564868 289.755408816018 291.406416606521 67 14 1304 42318 54427972
919	98700035 50400 1457303 1681676 279.545941971504 309.251199288179 1496 14 1304 756602 957775964
920	98750435 50400 1457303 1681676 279.545941971504 309.251199288179 1496 14 1304 756602 957775964
921	98800835 66 1538920 1539954 290.313087224883 290.337095261267 2 28 28 56 1568
922	98800901 3372 1457960 1509587 279.75002870099 283.012999778766 101 14 1304 33664 42525296
923	98804273 3372 1457960 1509587 279.75002870099 283.012999778766 101 14 1304 33664 42525296
924	98807645 3372 1457960 1509587 279.75002870099 283.012999778766 101 14 1304 33664 42525296
925	98811017 50031 1458259 1670271 279.751233891411 305.500221945724 1476 14 1304 958578 1224634020
926	98861048 50031 1458259 1670271 279.751233891411 305.500221945724 1476 14 1304 958578 1224634020
927	98911079 50031 1458259 1670271 279.751233891411 305.500221945724 1476 14 1304 958578 1224634020
928	98961110 13395 1458049 1608868 279.750073680331 294.530676191719 404 14 1304 74042 88711940
929	98974505 13395 1458049 1608868 279.750073680331 294.530676191719 404 14 1304 74042 88711940
930	98987900 13395 1458049 1608868 279.750073680331 294.530676191719 404 14 1304 74042 88711940
931	99001295 66 1539053 1540085 290.313383224883 290.337651261267 2 64 64 128 8192
932	99001361 461 1460036 1649264 280.002113647083 298.502161800095 14 64 64 896 57344
933	99001822 99 1471589 1545750 280.503528310255 291.252092873929 3 28 28 84 2352
934	99001921 23656 1458183 1648508 279.750645370102 298.316724581478 694 14 1304 514074 654677932
936	99025577 2544 1457960 1509624 279.75002870099 283.013043778766 75 0 4.4e-05 0.0011 4.84e-08
937	99028121 16480 1458111 1647892 279.750601370102 298.251540581478 486 14 1304 329354 425154156
938	99044601 632 1457970 1625683 279.750028942659 295.500143349691 19 14 1304 4136 5104384
939	99045233 632 1457970 1625683 279.750028942659 295.500143349691 19 14 1304 4136 5104384
940	99045865 632 1457970 1625683 279.750028942659 295.500143349691 19 14 1304 4136 5104384
941	99046497 66 1459520 1540449 280.000795237291 290.339809098264 2 28 28 56 1568
942	99046563 66 1459661 1540583 280.000951237291 290.340345098264 2 64 64 128 8192
944	99046629 1617 1457968 1508709 279.75002892505 282.770235515103 48 0 4.4e-05 0.000704 3.0976e-08
951	99048246 90891 1457974 1683034 279.750028960008 309.751116277682 2682 0 4.4e-05 0.039336 1.730784e-06
952	99139137 47209 1457974 1683046 279.750028960008 309.751117360843 1393 14 1304 875704 1115972200
953	99186346 47209 1457974 1683046 279.750028960008 309.751117360843 1393 14 1304 875704 1115972200
954	99233555 47209 1457974 1683046 279.750028960008 309.751117360843 1393 14 1304 875704 1115972200
958	99280764 297 1459664 1670322 280.000951698457 305.500472748052 9 64 64 576 36864
963	99281061 11167 1471507 1681596 280.50339586297 309.251154040831 330 14 1304 214890 277200540
982	99292228 99 1459678 1572553 280.000951839773 293.022956589482 3 28 28 84 2352
983	99292327 21409 1459739 1679511 280.001343839773 308.251269015811 631 14 1304 431104 554700976
984	99313736 19551 1459824 1679586 280.001389044684 308.251313534252 577 14 1304 381038 491488372
985	99333287 98 1459894 1649110 280.001837044674 298.501465065089 3 28 28 84 2352
986	99333385 98 1460027 1649247 280.002113044674 298.502161065089 3 64 64 192 12288
987	99333483 11176 1471440 1681678 280.50335186297 309.251199301965 330 14 1304 215090 277216140
992	99344659 306 1457970 1465550 279.750028942659 280.250066435367 9 0 4.4e-05 0.000132 5.808e-09
994	99344965 3317 1471349 1668871 280.501479121182 305.001169504567 95 1304 1304 123880 161539520
998	99348282 315 1508710 1627244 282.770245754529 295.779764907839 9 1304 1304 11736 15303744
999	99348597 315 1508710 1627244 282.770245754529 295.779764907839 9 1304 1304 11736 15303744
1000	99348912 10733 1457923 1683253 279.500051828916 310 306 0 110400 12938934.095963 1351707673508
1001	99359645 10736 1457925 1683253 279.500051828916 310 306 0 110400 12938934.095963 1350439142308
1003	99370381 133 1471442 1679979 280.50335186297 308.5001014747 4 28 28 112 3136
1004	99370514 133 1471580 1680114 280.50352786297 308.5006774747 4 64 64 256 16384
1008	99370647 1365 1457301 1459166 279.545941627383 279.845179050255 39 0 4.4e-05 0.000572 2.5168e-08
1014	99372012 14244 1457956 1638847 279.750028541563 296.750182596409 408 0 4.4e-05 0.005984 2.63296e-07
1015	99386256 139 1535833 1562795 289.755363215586 291.389871028482 4 64 172 580 92848
1019	99386395 143 1627802 1668874 296.036116755329 305.00117014709 4 1304 1304 5216 6801664
1020	99386538 68 1534958 1625498 289.749875817603 295.499885359511 2 64 64 128 8192
1027	99386606 338 1539421 1614424 290.333894176162 294.77238582192 10 14 14 140 1960
1028	99386944 338 1539421 1614424 290.333894176162 294.77238582192 10 14 14 140 1960
1029	99387282 338 1539421 1614424 290.333894176162 294.77238582192 10 14 14 140 1960
1038	99387620 4316 1457958 1514077 279.750028668841 284.500840494663 125 14 1304 49480 62932640
1039	99391936 4316 1457958 1514077 279.750028668841 284.500840494663 125 14 1304 49480 62932640
1040	99396252 4316 1457958 1514077 279.750028668841 284.500840494663 125 14 1304 49480 62932640
1048	99400568 108 1538918 1561487 290.313087224883 291.380128536157 3 1304 1304 3912 5101248
1049	99400676 144 1561489 1564644 291.380128536157 291.405631055728 4 1268 1268 5072 6431296
1057	99400820 70 1561709 1562806 291.380669311365 291.389871803757 2 172 172 344 59168
1059	99400890 1149 1471440 1645188 280.50335186297 297.753126128037 32 1304 1304 41728 54413312
1060	99402039 9918 1499434 1683253 279.21696620846 310 309 0 6080 85120 517529600
1061	99411957 9918 1499436 1683253 279.21748020846 310 309 0 6080 85120 517529600
1068	99421875 10199 1482439 1683253 279.309292252829 310 308 0 6080 97280 591462400
1069	99432074 10199 1482441 1683253 279.309846252829 310 308 0 6080 97280 591462400
1071	99442273 10433 1465095 1683253 278.663052713946 310 315 0 6080 103360 628428800
1072	99452706 10433 1465097 1683253 278.663606713946 310 315 0 6080 103360 628428800
1075	99463139 10856 1457655 1683253 277.301235833143 310 328 0 6080 91200 554496000
1076	99473995 10856 1457657 1683253 277.301649833143 310 328 0 6080 91200 554496000
1079	99484851 10643 1470857 1683253 278.862262618202 310 313 0 1147520 17128000 10795867033600
1080	99495494 10643 1470859 1683253 278.862736618202 310 313 0 1147520 17128000 10795867033600
1081	99506137 1900 1646471 1681545 298.000213324886 309.250167201866 56 14 14 784 10976
1082	99508037 1900 1646471 1681545 298.000213324886 309.250167201866 56 14 14 784 10976
1083	99509937 1900 1646471 1681545 298.000213324886 309.250167201866 56 14 14 784 10976
1097	99511837 108 1535264 1643836 289.752613388322 297.502702529841 3 1304 1304 3912 5101248
1101	99511945 407 1459668 1625486 280.000951752674 295.49988514439 12 64 64 768 49152
1102	99512352 97236 1458106 1656914 279.750600848778 301.000212135117 2787 0 4.4e-05 0.040876 1.798544e-06
1103	99609588 2511 1459977 1625059 280.001882227982 295.282114639724 74 14 1304 3666 3418844
1104	99612099 2511 1459977 1625059 280.001882227982 295.282114639724 74 14 1304 3666 3418844
1105	99614610 2511 1459977 1625059 280.001882227982 295.282114639724 74 14 1304 3666 3418844
1106	99617121 31532 1458201 1649418 279.750646427015 298.502459759658 913 14 1304 391008 495454264
1107	99648653 31460 1458201 1649418 279.750646427015 298.502459759658 911 14 1304 388400 492053432
1108	99680113 31460 1458201 1649418 279.750646427015 298.502459759658 911 14 1304 388400 492053432
1109	99711573 9102 1505809 1682903 282.003848165761 309.750184754626 268 14 1304 14072 13654288
1110	99720675 9102 1505809 1682903 282.003848165761 309.750184754626 268 14 1304 14072 13654288
1111	99729777 9102 1505809 1682903 282.003848165761 309.750184754626 268 14 1304 14072 13654288
1112	99738879 34 1539481 1539481 290.334505482841 290.334505482841 1 64 64 64 4096
1113	99738913 134 1460048 1540102 280.00211384443 290.337652017352 4 64 64 256 16384
1114	99739047 627 1539204 1542155 290.332816232846 290.505281016558 18 0 4.4e-05 0.000264 1.1616e-08
1115	99739674 1152 1645479 1680259 297.75481143263 308.500834141779 33 0 4.4e-05 0.000484 2.1296e-08
1116	99740826 38004 1459754 1648549 280.001344639584 298.31676915799 1089 0 4.4e-05 0.015972 7.02768e-07
1117	99778830 102 1649258 1680129 298.502161792558 308.500678141779 3 64 64 192 12288
1118	99778932 102 1649260 1680131 298.502161792558 308.500678141779 3 28 28 84 2352
1119	99779034 1628 1649326 1683036 298.502413792558 309.751116754599 48 14 64 822 21108
1120	99780662 7113 1459750 1564856 280.001344519218 291.406415772177 204 0 4.4e-05 0.002992 1.31648e-07
1121	99787775 1718 1649404 1682970 298.502459247469 309.751072754599 48 14 1304 58722 76519308
1122	99789493 1616 1649476 1682973 298.503207247446 309.751072754599 45 1208 1208 54360 65666880
1123	99791109 1616 1649477 1682974 298.503207247446 309.751072754599 45 1200 1200 54000 64800000
1124	99792725 2062 1649477 1682974 298.503207247446 309.751072754599 45 0.000751293224 0.004367885579 0.083639269752 0.00017583589575903
1125	99794787 1616 1649477 1682974 298.503207247446 309.751072754599 45 1154 1199 52937 62281987
1126	99796403 10321 1458265 1683253 279.501733224918 310 306 0 1048320 5020800 1506976972800
1127	99806724 10321 1458366 1683253 279.502067224918 310 306 0 1048320 5020800 1506976972800
1128	99817045 10561 1471068 1683253 278.300812698894 310 318 0 1592320 3082560 3183610572800
1129	99827606 10561 1471070 1683253 278.301106698894 310 318 0 1696640 3082560 3385240268800
1131	99838167 10166 1505993 1683253 279.400963893134 310 307 0 6080 97280 591462400
1132	99848333 10166 1505995 1683253 279.401437893134 310 307 0 6080 97280 591462400
1133	99858499 33 1505515 1505515 282.00273778947 282.00273778947 1 28 28 28 784
1134	99858532 3835 1505581 1564639 282.00316978947 291.405630380521 110 14 1304 69960 90137120
1135	99862367 3083 1505659 1564721 282.003215148144 291.405675730909 88 14 1304 70992 91836928
1136	99865450 752 1535844 1564075 289.755364015804 291.403536179335 21 64 1304 26144 34012416
1137	99866202 373 1505730 1545610 282.003803148129 291.251616129488 11 28 28 308 8624
1138	99866575 373 1505863 1545741 282.004219148129 291.252092129488 11 64 64 704 45056
1139	99866948 756 1516160 1528996 285.003803148129 288.751982673222 21 1268 1268 26628 33764304
1140	99867704 720 1536047 1561484 289.756828015804 291.380127858947 20 1304 1304 26080 34008320
1141	99868424 72 1536531 1537929 289.779863015804 290.024674708215 2 1304 1304 2608 3400832
1142	99868496 72 1536531 1537929 289.779863015804 290.024674708215 2 1304 1304 2608 3400832
1143	99868568 10523 1457474 1683253 278.302986260701 310 318 0 6080 85120 517529600
1144	99879091 10523 1457476 1683253 278.303180260701 310 318 0 6080 85120 517529600
1145	99889614 34 1539483 1539483 290.334505482841 290.334505482841 1 28 28 28 784
1146	99889648 172 1539550 1541948 290.334997482841 290.504384280554 5 14 1304 2700 3405320
1147	99889820 173 1539619 1542018 290.335042251604 290.504429016609 5 14 1304 2650 3401420
1150	99889993 6772 1464618 1648508 280.023770470789 298.316724581478 190 172 1304 193424 242879104
1155	99896765 638 1465065 1648552 280.058305470789 298.316779581478 18 172 1304 14416 17240832
1156	99897403 638 1465065 1648552 280.058305470789 298.316779581478 18 172 1304 14416 17240832
1163	99898041 10499 1467960 1683253 278.451667168804 310 317 0 6080 103360 628428800
1164	99908540 10499 1467962 1683253 278.457081168804 310 317 0 6080 103360 628428800
1165	99919039 71 1674187 1674839 306.502944414405 306.75352527588 2 1304 1304 2608 3400832
1166	99919110 10166 1488396 1683253 279.471245183052 310 307 0 6080 97280 591462400
1167	99929276 10166 1488398 1683253 279.471245183052 310 307 0 6080 97280 591462400
1172	99939442 10414 1457838 1683253 279.550187723168 310 306 0 2613120 25588800 26956240179200
1173	99949856 10406 1457840 1683253 279.550681723168 310 306 0 2404480 25588800 26128089600000
1174	99960262 10932 1457734 1683253 277.111422495733 310 330 0 109440 304960 23414272000
1175	99971194 10932 1457736 1683253 277.111422495733 310 330 0 109440 304960 23414272000
1176	99982126 102 1460040 1540094 280.002113724187 290.337651886732 3 64 64 192 12288
1177	99982228 34 1539062 1539062 290.313383848251 290.313383848251 1 28 28 28 784
1178	99982262 347 1539201 1542085 290.332815848251 290.505236648597 10 14 1304 5350 6806740
1179	99982609 346 1539277 1542161 290.33286109835 290.505281928491 10 14 1304 5350 6806740
1180	99982955 33 1539346 1539346 290.33384909841 290.33384909841 1 28 28 28 784
1181	99982988 33 1539478 1539478 290.33450509841 290.33450509841 1 64 64 64 4096
1186	99983021 10404 1482621 1683253 278.770517278088 310 314 0 218880 524800 94567628800
1187	99993425 10404 1482623 1683253 278.770517278088 310 314 0 218880 524800 94567628800
1188	100003829 11380 1458949 1683253 277.471639230473 310 327 0 1063040 29370880 21022230937600
1189	100015209 11384 1458951 1683253 277.471639230473 310 327 0 1063040 29370880 20826343014400
1191	100026593 430 1457298 1459131 279.545941239497 279.845134633296 12 14 1304 14358 18704772
1192	100027023 36 1458476 1458476 279.752818683566 279.752818683566 1 1304 1304 1304 1700416
1195	100027059 39148 1649477 1683253 188.35216153561 310 1218 0 96000 4416000 423936000000
1196	100066207 360 1457298 1459131 279.545941239497 279.845134633296 10 1304 1304 13040 17004160
1197	100066567 10104 1458480 1683253 279.601139013719 310 305 0 104320 293760 22282854400
1198	100076671 10104 1458574 1683253 279.601813013719 310 305 0 104320 293760 22282854400
1199	100086775 72 1457624 1459168 279.586922062008 279.845189633296 2 1304 1304 2608 3400832
1200	100086847 72 1457624 1459168 279.586922062008 279.845189633296 2 1304 1304 2608 3400832
1201	100086919 36 1458476 1458476 279.752818683566 279.752818683566 1 1304 1304 1304 1700416
1202	100086955 10234 1504932 1683253 279.498537789751 310 307 0 1773440 3595200 3962210611200
1203	100097189 10234 1504934 1683253 279.498537789751 310 307 0 1773440 3595200 3962210611200
1204	100107423 287 1464400 1504213 280.022850470789 281.773306180454 8 1268 1268 10144 12862592
1205	100107710 10889 1465364 1683253 277.256350122486 310 329 0 6080 91200 554496000
1206	100118599 10889 1465366 1683253 277.256350122486 310 329 0 6080 91200 554496000
1207	100129488 10523 1470952 1683253 278.352018983936 310 318 0 6080 85120 517529600
1208	100140011 10523 1470954 1683253 278.352018983936 310 318 0 6080 85120 517529600
1211	100150534 10598 1476492 1683253 278.164691850355 310 320 0 6080 103360 628428800
1212	100161132 10598 1476494 1683253 278.164691850355 310 320 0 6080 103360 628428800
1213	100171730 10625 1482285 1683253 278.033181495868 310 321 0 6080 91200 554496000
1214	100182355 10625 1482287 1683253 278.033181495868 310 321 0 6080 91200 554496000
1215	100192980 10204 1477751 1683253 279.301255364738 310 308 0 11200 112640 794624000
1216	100203184 10204 1477753 1683253 279.301925364738 310 308 0 11200 112640 794624000
1217	100213388 10664 1471152 1683253 277.910838504226 310 322 0 6080 103360 628428800
1218	100224052 10664 1471154 1683253 277.910838504226 310 322 0 6080 103360 628428800
1219	100234716 10628 1465252 1683253 278.005661195333 310 321 0 6080 97280 591462400
1220	100245344 10628 1465254 1683253 278.005661195333 310 321 0 6080 97280 591462400
1221	100255972 10341 1457966 1683253 279.568626603018 310 306 0 1982080 13481600 12445252608000
1222	100266313 10341 1458078 1683253 279.568626603018 310 306 0 1982080 13481600 12292895334400
1224	100276654 1687 1537221 1643829 290.003354990544 297.50270184217 47 1304 1304 61288 79919552
1225	100278341 252 1560774 1571798 291.357240768198 292.808304013504 7 1304 1304 9128 11902912
1226	100278593 252 1560774 1571798 291.357240768198 292.808304013504 7 1304 1304 9128 11902912
1227	100278845 3879 1457958 1514113 279.750028668841 284.500884494663 111 0 4.4e-05 0.001628 7.1632e-08
1236	100282724 68 1460032 1540090 280.002113616549 290.337651788021 2 28 28 56 1568
1237	100282792 9550 1458031 1625107 279.750072848778 295.28274943887 274 14 1304 168056 214583104
1238	100292342 9544 1457962 1625185 279.750028848778 295.282794509177 274 14 1304 167956 214575304
1255	100301886 72 1468102 1537011 280.263707681703 290.001590990544 2 1304 1304 2608 3400832
1256	100301958 359 1576644 1624826 293.046618094407 295.28130866744 10 1268 1268 12680 16078240

